-------------------------------------------------------
          Amber 20 PMEMD                              2020
          -------------------------------------------------------

  [-O]verwriting output

File Assignments:

 Here is the input file:

&cntrl
 ig=-1,
 iwrap = 1,
 imin = 0,
 nstlim = 50000, dt = 0.002,
 irest = 1,
 ioutfm = 1,
 ntxo = 2,
 ntx = 5,
 ntb = 2,
 ntp = 1, barostat = 2, pres0 = 1.0,
 taup = 1.0,
 ntt = 3, gamma_ln = 1.0, tempi = 300.0, temp0 = 300.0,
 ntr = 1,
 ntc = 2, ntf = 1,
 cut = 10.0,
 ntpr=1000, ntwx=0, ntwr=1000,

 restraintmask='@CA|:1,2&!@H=',
 restraint_wt=20.0,

 icfe = 1, ifsc = 1, clambda = 0.08198, gti_lam_sch = 1, scalpha = 0.2, scbeta
 timask1 = ':1', timask2 = ':2',
 scmask1 = ':1@C15,H55,H54,H53,H52,H51,H50,H49,H48,H45,H44,H43,C26,C25,O24,C23,

 nmropt = 0,
 /
 &wt type='DUMPFREQ', istep1 = 1000
 /
 &wt type='END'
 /
LISTIN=POUT
LISTOUT=POUT
DISANG=../k.RST
DUMPAVE = rstr_npt2.dat

Note: ig = -1. Setting random seed to   266082 based on wallclock time in
      microseconds.

--------------------------------------------------------------------------------
   1.  RESOURCE   USE:
--------------------------------------------------------------------------------

 getting box info from netcdf restart file
 NATOM  =   30307 NTYPES =      27 NBONH =   27584 MBONA  =    2772
 NTHETH =    6117 MTHETA =    3759 NPHIH =   12378 MPHIA  =   11843
 NHPARM =       0 NPARM  =       0 NNB   =   63025 NRES   =    8643
 NBONA  =    2772 NTHETA =    3759 NPHIA =   11843 NUMBND =      83
 NUMANG =     185 NPTRA  =     215 NATYP =      48 NPHB   =       1
 IFBOX  =       1 NMXRS  =      59 IFCAP =       0 NEXTRA =       0
 NCOPY  =       0

     BOX TYPE: RECTILINEAR

--------------------------------------------------------------------------------
   2.  CONTROL  DATA  FOR  THE  RUN
--------------------------------------------------------------------------------

L0

General flags:
     imin    =       0, nmropt  =       0

Nature and format of input:
     ntx     =       5, irest   =       1, ntrx    =       1

Nature and format of output:
     ntxo    =       2, ntpr    =    1000, ntrx    =       1, ntwr    =    1000
     iwrap   =       1, ntwx    =       0, ntwv    =       0, ntwe    =       0
     ioutfm  =       1, ntwprt  =       0, idecomp =       0, rbornstat=      0

Potential function:
     ntf     =       1, ntb     =       2, igb     =       0, nsnb    =      25
     ipol    =       0, gbsa    =       0, iesp    =       0
     dielc   =   1.00000, cut     =  10.00000, intdiel =   1.00000

Frozen or restrained atoms:
     ibelly  =       0, ntr     =       1
     restraint_wt =  20.00000

Molecular dynamics:
     nstlim  =     50000, nscm    =         0, nrespa  =         1
     t       =   0.00000, dt      =   0.00200, vlimit  =  -1.00000

Langevin dynamics temperature regulation:
     ig      =  266082
     temp0   = 300.00000, tempi   = 300.00000, gamma_ln=   1.00000

Pressure regulation:
     ntp     =       1
     pres0   =   1.00000, comp    =  44.60000, taup    =   1.00000
     Monte-Carlo Barostat:
     mcbarint  =     100

SHAKE:
     ntc     =       2, jfastw  =       0
     tol     =   0.00001

Free energy options:
     icfe    =       1, ifsc    =       1, klambda =       1
     clambda =  0.0820, scalpha =  0.2000, scbeta  = 50.0000
     sceeorder =       2
     dynlmb =  0.0000 logdvdl =       0

Ewald parameters:
     verbose =       0, ew_type =       0, nbflag  =       1, use_pme =       1
     vdwmeth =       1, eedmeth =       1, netfrc  =       1
     Box X =   77.273   Box Y =   73.675   Box Z =   55.722
     Alpha =   90.000   Beta  =   90.000   Gamma =   90.000
     NFFT1 =   80       NFFT2 =   80       NFFT3 =   56
     Cutoff=   10.000   Tol   =0.100E-04
     Ewald Coefficient =  0.27511
     Interpolation order =    4

    LOADING THE CONSTRAINED ATOMS AS GROUPS

   5.  REFERENCE ATOM COORDINATES

  L0
     Mask @CA|:1,2&!@H=; matches   393 atoms
     TI Mask 1 :1; matches     59 atoms
     TI Mask 2 :2; matches     55 atoms
     TI region 1:   30252 atoms
     TI region 2:   30248 atoms
     SC Mask 1 :1@C15,H55,H54,H53,H52,H51,H50,H49,H48,H45,H44,H43,C26,C25,O24,C23,C22; matches     17 atoms
     SC Mask 2 :2@H54,C22,C23,O24,C25,C26,H45,H46,H47,H48,H49,H50,H51; matches     13 atoms

--------------------------------------------------------------------------------
   3.  ATOMIC COORDINATES AND VELOCITIES
--------------------------------------------------------------------------------

L0
 begin time read from input coords =    72.000 ps

     Molecule     1 is partially softcore
     Molecule     2 is partially softcore
 Number of triangulated 3-point waters found:     8294
   Removing shake constraints from C29   L1    2 -- H54   L1    2
 Number of shake restraints removed in TI region  1 :        0
 Number of shake restraints removed in TI region  2 :        1

     Sum of charges for TI region  1 =  -1.00001118
     Skip neutralizing charges...

     Sum of charges for TI region  2 =  -0.99997918
     Skip neutralizing charges...

--------------------------------------------------------------------------------
   4.  RESULTS
 NSTEP =     1000   TIME(PS) =      74.000  TEMP(K) =   300.71  PRESS =     0.0
 Etot   =    -69704.8372  EKtot   =     18882.2028  EPtot      =    -88587.0401
 BOND   =      1055.8854  ANGLE   =      2636.9792  DIHED      =      4300.5346
 1-4 NB =      1255.4979  1-4 EEL =     12252.0190  VDWAALS    =      8337.0465
 EELEC  =   -118616.9107  EHBOND  =         0.0000  RESTRAINT  =       191.9080
 EAMBER (non-restraint)  =    -88778.9480
 EKCMT  =         0.0000  VIRIAL  =         0.0000  VOLUME     =    315718.2636
                                                    Density    =         0.9886
 DV/DL  =         6.0547
 ------------------------------------------------------------------------------

      A V E R A G E S   O V E R      50 S T E P S

 NSTEP =    50000   TIME(PS) =     172.000  TEMP(K) =   300.18  PRESS =     0.0
 Etot   =    -70515.0757  EKtot   =     18849.2281  EPtot      =    -89364.3038
 BOND   =      1015.2456  ANGLE   =      2703.4335  DIHED      =      4317.2955
 1-4 NB =      1244.8364  1-4 EEL =     12265.0068  VDWAALS    =      8427.5516
 EELEC  =   -119526.3604  EHBOND  =         0.0000  RESTRAINT  =       188.6871
 EAMBER (non-restraint)  =    -89552.9909
 EKCMT  =         0.0000  VIRIAL  =         0.0000  VOLUME     =    302687.0990
                                                    Density    =         1.0314
 DV/DL  =        13.0645
 ------------------------------------------------------------------------------

      R M S  F L U C T U A T I O N S

 NSTEP =    50000   TIME(PS) =     172.000  TEMP(K) =     1.59  PRESS =     0.0
 Etot   =       284.1979  EKtot   =        99.7125  EPtot      =       279.1568
 BOND   =        26.3180  ANGLE   =        38.5535  DIHED      =        21.1865
 1-4 NB =        14.0772  1-4 EEL =        37.9245  VDWAALS    =       144.0330
 EELEC  =       363.1496  EHBOND  =         0.0000  RESTRAINT  =         9.2435
 EAMBER (non-restraint)  =       269.9133
 EKCMT  =         0.0000  VIRIAL  =         0.0000  VOLUME     =      4277.8999
                                                    Density    =         0.0142
 DV/DL  =         5.8777
 ------------------------------------------------------------------------------

      A V E R A G E S   O V E R      50 S T E P S

 NSTEP =    50000   TIME(PS) =     172.000  TEMP(K) =   300.16  PRESS =     0.0
 Etot   =    -70518.6679  EKtot   =     18845.6359  EPtot      =    -89364.3038
 BOND   =      1015.2456  ANGLE   =      2703.4335  DIHED      =      4317.2955
 1-4 NB =      1244.8364  1-4 EEL =     12265.0068  VDWAALS    =      8427.5516
 EELEC  =   -119526.3604  EHBOND  =         0.0000  RESTRAINT  =       188.6871
 EAMBER (non-restraint)  =    -89552.9909
 EKCMT  =         0.0000  VIRIAL  =         0.0000  VOLUME     =    302687.0990
                                                    Density    =         1.0313
 DV/DL  =        13.0645
 ------------------------------------------------------------------------------

      R M S  F L U C T U A T I O N S

 NSTEP =    50000   TIME(PS) =     172.000  TEMP(K) =     1.60  PRESS =     0.0
 Etot   =       283.8491  EKtot   =       100.1459  EPtot      =       279.1568
 BOND   =        26.3180  ANGLE   =        38.5535  DIHED      =        21.1865
 1-4 NB =        14.0772  1-4 EEL =        37.9245  VDWAALS    =       144.0330
 EELEC  =       363.1496  EHBOND  =         0.0000  RESTRAINT  =         9.2435
 EAMBER (non-restraint)  =       269.9133
 EKCMT  =         0.0000  VIRIAL  =         0.0000  VOLUME     =      4277.8999
                                                    Density    =         0.0142
 DV/DL  =         5.8777
 ------------------------------------------------------------------------------

      DV/DL, AVERAGES OVER      50 STEPS

 NSTEP =    50000   TIME(PS) =     172.000  TEMP(K) =     1.60  PRESS =     0.0
 Etot   =         0.0000  EKtot   =         0.0000  EPtot      =         0.0000
 BOND   =         0.0434  ANGLE   =         0.0286  DIHED      =         0.0000
 1-4 NB =         0.1724  1-4 EEL =         3.0325  VDWAALS    =        10.6556
 EELEC  =        -1.4289  EHBOND  =         0.0000  RESTRAINT  =         0.0000
 EKCMT  =         0.0000  VIRIAL  =         0.0000  VOLUME     =         0.0000
                                                    Density    =         0.0000
 ------------------------------------------------------------------------------
