-------------------------------------------------------
          Amber 20 PMEMD                              2020
          -------------------------------------------------------

  [-O]verwriting output

File Assignments:

 Here is the input file:

npt run
 &cntrl
  ig = -1,
  imin = 0,
  nstlim = 50000, dt = 0.002,
  irest = 1,
  ioutfm = 1,
  ntx = 5,
  ntxo = 2,
  ntb = 2,
  ntp = 1,
  pres0 = 1.0,
  taup = 1.0,
  ntt = 3, gamma_ln = 1.0, tempi = 300, temp0 = 300,
  ntr = 1,
  ntc = 2, ntf = 2,
  ntpr = 5000, ntwx = 10000, ntwr = 1000,
  iwrap = 1,
  cut = 10, restraintmask='@CA|:MOL&!@H=',
  restraint_wt=10.0,
/

Note: ig = -1. Setting random seed to   112428 based on wallclock time in
      microseconds.

--------------------------------------------------------------------------------
   1.  RESOURCE   USE:
--------------------------------------------------------------------------------

 getting box info from netcdf restart file
 NATOM  =   33089 NTYPES =      25 NBONH =   31780 MBONA  =    1321
 NTHETH =    2979 MTHETA =    1777 NPHIH =    6059 MPHIA  =    5536
 NHPARM =       0 NPARM  =       0 NNB   =   55000 NRES   =   10325
 NBONA  =    1321 NTHETA =    1777 NPHIA =    5536 NUMBND =      75
 NUMANG =     163 NPTRA  =     195 NATYP =      44 NPHB   =       1
 IFBOX  =       1 NMXRS  =      24 IFCAP =       0 NEXTRA =       0
 NCOPY  =       0

     BOX TYPE: RECTILINEAR

--------------------------------------------------------------------------------
   2.  CONTROL  DATA  FOR  THE  RUN
--------------------------------------------------------------------------------

default_name

General flags:
     imin    =       0, nmropt  =       0

Nature and format of input:
     ntx     =       5, irest   =       1, ntrx    =       1

Nature and format of output:
     ntxo    =       2, ntpr    =    5000, ntrx    =       1, ntwr    =    1000
     iwrap   =       1, ntwx    =   10000, ntwv    =       0, ntwe    =       0
     ioutfm  =       1, ntwprt  =       0, idecomp =       0, rbornstat=      0

Potential function:
     ntf     =       2, ntb     =       2, igb     =       0, nsnb    =      25
     ipol    =       0, gbsa    =       0, iesp    =       0
     dielc   =   1.00000, cut     =  10.00000, intdiel =   1.00000

Frozen or restrained atoms:
     ibelly  =       0, ntr     =       1
     restraint_wt =  10.00000

Molecular dynamics:
     nstlim  =     50000, nscm    =         0, nrespa  =         1
     t       =   0.00000, dt      =   0.00200, vlimit  =  -1.00000

Langevin dynamics temperature regulation:
     ig      =  112428
     temp0   = 300.00000, tempi   = 300.00000, gamma_ln=   1.00000

Pressure regulation:
     ntp     =       1
     pres0   =   1.00000, comp    =  44.60000, taup    =   1.00000

SHAKE:
     ntc     =       2, jfastw  =       0
     tol     =   0.00001

Ewald parameters:
     verbose =       0, ew_type =       0, nbflag  =       1, use_pme =       1
     vdwmeth =       1, eedmeth =       1, netfrc  =       1
     Box X =   72.535   Box Y =   68.060   Box Z =   84.139
     Alpha =   90.000   Beta  =   90.000   Gamma =   90.000
     NFFT1 =   80       NFFT2 =   72       NFFT3 =   96
     Cutoff=   10.000   Tol   =0.100E-04
     Ewald Coefficient =  0.27511
     Interpolation order =    4

    LOADING THE CONSTRAINED ATOMS AS GROUPS

   5.  REFERENCE ATOM COORDINATES

  default_name
     Mask @CA|:MOL&!@H=; matches   172 atoms

--------------------------------------------------------------------------------
   3.  ATOMIC COORDINATES AND VELOCITIES
--------------------------------------------------------------------------------

default_name
 begin time read from input coords =   250.000 ps

 Number of triangulated 3-point waters found:    10154

     Sum of charges from parm topology file =  -0.00000008
     Forcing neutrality...

--------------------------------------------------------------------------------
   4.  RESULTS
 NSTEP =     5000   TIME(PS) =     260.000  TEMP(K) =   295.74  PRESS =  -299.0
 Etot   =    -82181.3741  EKtot   =     19830.7090  EPtot      =   -102012.0831
 BOND   =       503.9712  ANGLE   =      1234.5656  DIHED      =      2078.4032
 1-4 NB =       587.2664  1-4 EEL =      5219.4762  VDWAALS    =     12616.1907
 EELEC  =   -124314.9663  EHBOND  =         0.0000  RESTRAINT  =        63.0097
 EAMBER (non-restraint)  =   -102075.0929
 EKCMT  =      8986.8913  VIRIAL  =     11487.7787  VOLUME     =    387429.2857
                                                    Density    =         0.8646
 ------------------------------------------------------------------------------

      A V E R A G E S   O V E R      10 S T E P S

 NSTEP =    50000   TIME(PS) =     350.000  TEMP(K) =   299.77  PRESS =    -5.3
 Etot   =    -82870.6037  EKtot   =     20100.7562  EPtot      =   -102971.3599
 BOND   =       498.6045  ANGLE   =      1265.1612  DIHED      =      2070.7639
 1-4 NB =       601.8715  1-4 EEL =      5209.9240  VDWAALS    =     12903.0320
 EELEC  =   -125592.3428  EHBOND  =         0.0000  RESTRAINT  =        71.6258
 EAMBER (non-restraint)  =   -103042.9857
 EKCMT  =      9124.6989  VIRIAL  =      9204.0668  VOLUME     =    341193.2790
                                                    Density    =         0.9844
 ------------------------------------------------------------------------------

      R M S  F L U C T U A T I O N S

 NSTEP =    50000   TIME(PS) =     350.000  TEMP(K) =     1.97  PRESS =   153.7
 Etot   =       323.9273  EKtot   =       131.8679  EPtot      =       384.0326
 BOND   =        19.9042  ANGLE   =        28.7448  DIHED      =        12.6759
 1-4 NB =         7.5301  1-4 EEL =        25.8209  VDWAALS    =       170.3696
 EELEC  =       471.9183  EHBOND  =         0.0000  RESTRAINT  =         4.6027
 EAMBER (non-restraint)  =       379.4299
 EKCMT  =        87.0760  VIRIAL  =      1109.2049  VOLUME     =     18304.2978
                                                    Density    =         0.0484
 ------------------------------------------------------------------------------
