-------------------------------------------------------
          Amber 20 PMEMD                              2020
          -------------------------------------------------------

  [-O]verwriting output

File Assignments:

 Here is the input file:

npt run
 &cntrl
  ig = -1,
  imin = 0,
  nstlim = 50000, dt = 0.002,
  irest = 1,
  ioutfm = 1,
  ntx = 5,
  ntxo = 2,
  ntb = 2,
  ntp = 1,
  pres0 = 1.0,
  taup = 1.0,
  ntt = 3, gamma_ln = 1.0, tempi = 300, temp0 = 300,
  ntr = 1,
  ntc = 2, ntf = 2,
  ntpr = 5000, ntwx = 10000, ntwr = 1000,
  iwrap = 1,
  cut = 10, restraintmask='@CA|:MOL&!@H=',
  restraint_wt=5.0,
/

Note: ig = -1. Setting random seed to     5237 based on wallclock time in
      microseconds.

--------------------------------------------------------------------------------
   1.  RESOURCE   USE:
--------------------------------------------------------------------------------

 getting box info from netcdf restart file
 NATOM  =   33089 NTYPES =      25 NBONH =   31780 MBONA  =    1321
 NTHETH =    2979 MTHETA =    1777 NPHIH =    6059 MPHIA  =    5536
 NHPARM =       0 NPARM  =       0 NNB   =   55000 NRES   =   10325
 NBONA  =    1321 NTHETA =    1777 NPHIA =    5536 NUMBND =      75
 NUMANG =     163 NPTRA  =     195 NATYP =      44 NPHB   =       1
 IFBOX  =       1 NMXRS  =      24 IFCAP =       0 NEXTRA =       0
 NCOPY  =       0

     BOX TYPE: RECTILINEAR

--------------------------------------------------------------------------------
   2.  CONTROL  DATA  FOR  THE  RUN
--------------------------------------------------------------------------------

default_name

General flags:
     imin    =       0, nmropt  =       0

Nature and format of input:
     ntx     =       5, irest   =       1, ntrx    =       1

Nature and format of output:
     ntxo    =       2, ntpr    =    5000, ntrx    =       1, ntwr    =    1000
     iwrap   =       1, ntwx    =   10000, ntwv    =       0, ntwe    =       0
     ioutfm  =       1, ntwprt  =       0, idecomp =       0, rbornstat=      0

Potential function:
     ntf     =       2, ntb     =       2, igb     =       0, nsnb    =      25
     ipol    =       0, gbsa    =       0, iesp    =       0
     dielc   =   1.00000, cut     =  10.00000, intdiel =   1.00000

Frozen or restrained atoms:
     ibelly  =       0, ntr     =       1
     restraint_wt =   5.00000

Molecular dynamics:
     nstlim  =     50000, nscm    =         0, nrespa  =         1
     t       =   0.00000, dt      =   0.00200, vlimit  =  -1.00000

Langevin dynamics temperature regulation:
     ig      =    5237
     temp0   = 300.00000, tempi   = 300.00000, gamma_ln=   1.00000

Pressure regulation:
     ntp     =       1
     pres0   =   1.00000, comp    =  44.60000, taup    =   1.00000

SHAKE:
     ntc     =       2, jfastw  =       0
     tol     =   0.00001

Ewald parameters:
     verbose =       0, ew_type =       0, nbflag  =       1, use_pme =       1
     vdwmeth =       1, eedmeth =       1, netfrc  =       1
     Box X =   67.293   Box Y =   63.142   Box Z =   78.059
     Alpha =   90.000   Beta  =   90.000   Gamma =   90.000
     NFFT1 =   64       NFFT2 =   64       NFFT3 =   80
     Cutoff=   10.000   Tol   =0.100E-04
     Ewald Coefficient =  0.27511
     Interpolation order =    4

    LOADING THE CONSTRAINED ATOMS AS GROUPS

   5.  REFERENCE ATOM COORDINATES

  default_name
     Mask @CA|:MOL&!@H=; matches   172 atoms

--------------------------------------------------------------------------------
   3.  ATOMIC COORDINATES AND VELOCITIES
--------------------------------------------------------------------------------

default_name
 begin time read from input coords =   350.000 ps

 Number of triangulated 3-point waters found:    10154

     Sum of charges from parm topology file =  -0.00000008
     Forcing neutrality...

--------------------------------------------------------------------------------
   4.  RESULTS
 NSTEP =     5000   TIME(PS) =     360.000  TEMP(K) =   297.19  PRESS =   -82.5
 Etot   =    -83358.5747  EKtot   =     19928.3496  EPtot      =   -103286.9244
 BOND   =       486.9606  ANGLE   =      1235.4788  DIHED      =      2063.9866
 1-4 NB =       614.3882  1-4 EEL =      5204.8542  VDWAALS    =     12808.7687
 EELEC  =   -125753.3574  EHBOND  =         0.0000  RESTRAINT  =        51.9958
 EAMBER (non-restraint)  =   -103338.9202
 EKCMT  =      9108.5431  VIRIAL  =      9699.1050  VOLUME     =    331531.9504
                                                    Density    =         1.0104
 ------------------------------------------------------------------------------

      A V E R A G E S   O V E R      10 S T E P S

 NSTEP =    50000   TIME(PS) =     450.000  TEMP(K) =   299.31  PRESS =    27.3
 Etot   =    -83303.9613  EKtot   =     20070.0141  EPtot      =   -103373.9754
 BOND   =       497.2105  ANGLE   =      1258.1400  DIHED      =      2073.7317
 1-4 NB =       611.7616  1-4 EEL =      5205.0479  VDWAALS    =     12920.9976
 EELEC  =   -125994.5079  EHBOND  =         0.0000  RESTRAINT  =        53.6432
 EAMBER (non-restraint)  =   -103427.6185
 EKCMT  =      9099.5264  VIRIAL  =      8904.0602  VOLUME     =    331406.3208
                                                    Density    =         1.0108
 ------------------------------------------------------------------------------

      R M S  F L U C T U A T I O N S

 NSTEP =    50000   TIME(PS) =     450.000  TEMP(K) =     1.67  PRESS =    98.7
 Etot   =       239.7211  EKtot   =       112.1647  EPtot      =       196.7418
 BOND   =        18.5177  ANGLE   =        10.7161  DIHED      =        12.9414
 1-4 NB =         9.9630  1-4 EEL =        25.7582  VDWAALS    =       133.7972
 EELEC  =       237.0024  EHBOND  =         0.0000  RESTRAINT  =         3.5093
 EAMBER (non-restraint)  =       193.2325
 EKCMT  =        74.0053  VIRIAL  =       678.1889  VOLUME     =       565.0684
                                                    Density    =         0.0017
 ------------------------------------------------------------------------------
