-------------------------------------------------------
          Amber 20 PMEMD                              2020
          -------------------------------------------------------

  [-O]verwriting output

File Assignments:

 Here is the input file:

npt run
 &cntrl
  ig = -1,
  imin = 0,
  nstlim = 50000, dt = 0.002,
  irest = 1,
  ioutfm = 1,
  ntx = 5,
  ntxo = 2,
  ntb = 2,
  ntp = 1,
  pres0 = 1.0,
  taup = 1.0,
  ntt = 3, gamma_ln = 1.0, tempi = 300, temp0 = 300,
  ntr = 1,
  ntc = 2, ntf = 2,
  ntpr = 5000, ntwx = 10000, ntwr = 10000,
  iwrap = 1,
  cut = 10, restraintmask='@CA|:MOL&!@H=',
  restraint_wt=1.0,
/

Note: ig = -1. Setting random seed to   796422 based on wallclock time in
      microseconds.

--------------------------------------------------------------------------------
   1.  RESOURCE   USE:
--------------------------------------------------------------------------------

 getting box info from netcdf restart file
 NATOM  =   33089 NTYPES =      25 NBONH =   31780 MBONA  =    1321
 NTHETH =    2979 MTHETA =    1777 NPHIH =    6059 MPHIA  =    5536
 NHPARM =       0 NPARM  =       0 NNB   =   55000 NRES   =   10325
 NBONA  =    1321 NTHETA =    1777 NPHIA =    5536 NUMBND =      75
 NUMANG =     163 NPTRA  =     195 NATYP =      44 NPHB   =       1
 IFBOX  =       1 NMXRS  =      24 IFCAP =       0 NEXTRA =       0
 NCOPY  =       0

     BOX TYPE: RECTILINEAR

--------------------------------------------------------------------------------
   2.  CONTROL  DATA  FOR  THE  RUN
--------------------------------------------------------------------------------

default_name

General flags:
     imin    =       0, nmropt  =       0

Nature and format of input:
     ntx     =       5, irest   =       1, ntrx    =       1

Nature and format of output:
     ntxo    =       2, ntpr    =    5000, ntrx    =       1, ntwr    =   10000
     iwrap   =       1, ntwx    =   10000, ntwv    =       0, ntwe    =       0
     ioutfm  =       1, ntwprt  =       0, idecomp =       0, rbornstat=      0

Potential function:
     ntf     =       2, ntb     =       2, igb     =       0, nsnb    =      25
     ipol    =       0, gbsa    =       0, iesp    =       0
     dielc   =   1.00000, cut     =  10.00000, intdiel =   1.00000

Frozen or restrained atoms:
     ibelly  =       0, ntr     =       1
     restraint_wt =   1.00000

Molecular dynamics:
     nstlim  =     50000, nscm    =         0, nrespa  =         1
     t       =   0.00000, dt      =   0.00200, vlimit  =  -1.00000

Langevin dynamics temperature regulation:
     ig      =  796422
     temp0   = 300.00000, tempi   = 300.00000, gamma_ln=   1.00000

Pressure regulation:
     ntp     =       1
     pres0   =   1.00000, comp    =  44.60000, taup    =   1.00000

SHAKE:
     ntc     =       2, jfastw  =       0
     tol     =   0.00001

Ewald parameters:
     verbose =       0, ew_type =       0, nbflag  =       1, use_pme =       1
     vdwmeth =       1, eedmeth =       1, netfrc  =       1
     Box X =   67.328   Box Y =   63.174   Box Z =   78.099
     Alpha =   90.000   Beta  =   90.000   Gamma =   90.000
     NFFT1 =   64       NFFT2 =   64       NFFT3 =   80
     Cutoff=   10.000   Tol   =0.100E-04
     Ewald Coefficient =  0.27511
     Interpolation order =    4

    LOADING THE CONSTRAINED ATOMS AS GROUPS

   5.  REFERENCE ATOM COORDINATES

  default_name
     Mask @CA|:MOL&!@H=; matches   172 atoms

--------------------------------------------------------------------------------
   3.  ATOMIC COORDINATES AND VELOCITIES
--------------------------------------------------------------------------------

default_name
 begin time read from input coords =   450.000 ps

 Number of triangulated 3-point waters found:    10154

     Sum of charges from parm topology file =  -0.00000008
     Forcing neutrality...

--------------------------------------------------------------------------------
   4.  RESULTS
 NSTEP =     5000   TIME(PS) =     460.000  TEMP(K) =   301.45  PRESS =   117.7
 Etot   =    -83007.1562  EKtot   =     20213.5605  EPtot      =   -103220.7168
 BOND   =       528.6383  ANGLE   =      1236.7565  DIHED      =      2080.1951
 1-4 NB =       603.7792  1-4 EEL =      5188.8213  VDWAALS    =     13026.9902
 EELEC  =   -125911.2418  EHBOND  =         0.0000  RESTRAINT  =        25.3443
 EAMBER (non-restraint)  =   -103246.0611
 EKCMT  =      9190.3090  VIRIAL  =      8347.5041  VOLUME     =    331530.9524
                                                    Density    =         1.0104
 ------------------------------------------------------------------------------

      A V E R A G E S   O V E R      10 S T E P S

 NSTEP =    50000   TIME(PS) =     550.000  TEMP(K) =   299.75  PRESS =    70.0
 Etot   =    -83241.1190  EKtot   =     20099.6170  EPtot      =   -103340.7360
 BOND   =       514.1945  ANGLE   =      1259.8599  DIHED      =      2076.3977
 1-4 NB =       608.2387  1-4 EEL =      5208.2381  VDWAALS    =     12917.3958
 EELEC  =   -125950.8941  EHBOND  =         0.0000  RESTRAINT  =        25.8334
 EAMBER (non-restraint)  =   -103366.5694
 EKCMT  =      9090.7411  VIRIAL  =      8589.4408  VOLUME     =    331534.8265
                                                    Density    =         1.0104
 ------------------------------------------------------------------------------

      R M S  F L U C T U A T I O N S

 NSTEP =    50000   TIME(PS) =     550.000  TEMP(K) =     1.67  PRESS =   164.1
 Etot   =       153.1665  EKtot   =       112.1884  EPtot      =       163.7875
 BOND   =        13.6766  ANGLE   =        19.7399  DIHED      =        10.1178
 1-4 NB =        10.9037  1-4 EEL =        24.7002  VDWAALS    =       145.1564
 EELEC  =       214.7513  EHBOND  =         0.0000  RESTRAINT  =         1.5951
 EAMBER (non-restraint)  =       162.1924
 EKCMT  =        68.8781  VIRIAL  =      1171.2362  VOLUME     =       482.2823
                                                    Density    =         0.0015
 ------------------------------------------------------------------------------
