-------------------------------------------------------
          Amber 20 PMEMD                              2020
          -------------------------------------------------------

  [-O]verwriting output

File Assignments:

 Here is the input file:

npt run
 &cntrl
  ig = -1,
  imin = 0,
  nstlim = 50000, dt = 0.002,
  irest = 1,
  ioutfm = 1,
  ntx = 5,
  ntxo = 2,
  ntb = 2,
  ntp = 1,
  pres0 = 1.0,
  taup = 1.0,
  ntt = 3, gamma_ln = 1.0, tempi = 300, temp0 = 300,
  ntr = 1,
  ntc = 2, ntf = 2,
  ntpr = 5000, ntwx = 10000, ntwr = 10000
  iwrap = 1,
  cut = 10, restraintmask='@CA|:MOL&!@H=',
  restraint_wt=0.5,
/

Note: ig = -1. Setting random seed to   431293 based on wallclock time in
      microseconds.

--------------------------------------------------------------------------------
   1.  RESOURCE   USE:
--------------------------------------------------------------------------------

 getting box info from netcdf restart file
 NATOM  =   33089 NTYPES =      25 NBONH =   31780 MBONA  =    1321
 NTHETH =    2979 MTHETA =    1777 NPHIH =    6059 MPHIA  =    5536
 NHPARM =       0 NPARM  =       0 NNB   =   55000 NRES   =   10325
 NBONA  =    1321 NTHETA =    1777 NPHIA =    5536 NUMBND =      75
 NUMANG =     163 NPTRA  =     195 NATYP =      44 NPHB   =       1
 IFBOX  =       1 NMXRS  =      24 IFCAP =       0 NEXTRA =       0
 NCOPY  =       0

     BOX TYPE: RECTILINEAR

--------------------------------------------------------------------------------
   2.  CONTROL  DATA  FOR  THE  RUN
--------------------------------------------------------------------------------

default_name

General flags:
     imin    =       0, nmropt  =       0

Nature and format of input:
     ntx     =       5, irest   =       1, ntrx    =       1

Nature and format of output:
     ntxo    =       2, ntpr    =    5000, ntrx    =       1, ntwr    =   10000
     iwrap   =       1, ntwx    =   10000, ntwv    =       0, ntwe    =       0
     ioutfm  =       1, ntwprt  =       0, idecomp =       0, rbornstat=      0

Potential function:
     ntf     =       2, ntb     =       2, igb     =       0, nsnb    =      25
     ipol    =       0, gbsa    =       0, iesp    =       0
     dielc   =   1.00000, cut     =  10.00000, intdiel =   1.00000

Frozen or restrained atoms:
     ibelly  =       0, ntr     =       1
     restraint_wt =   0.50000

Molecular dynamics:
     nstlim  =     50000, nscm    =         0, nrespa  =         1
     t       =   0.00000, dt      =   0.00200, vlimit  =  -1.00000

Langevin dynamics temperature regulation:
     ig      =  431293
     temp0   = 300.00000, tempi   = 300.00000, gamma_ln=   1.00000

Pressure regulation:
     ntp     =       1
     pres0   =   1.00000, comp    =  44.60000, taup    =   1.00000

SHAKE:
     ntc     =       2, jfastw  =       0
     tol     =   0.00001

Ewald parameters:
     verbose =       0, ew_type =       0, nbflag  =       1, use_pme =       1
     vdwmeth =       1, eedmeth =       1, netfrc  =       1
     Box X =   67.256   Box Y =   63.107   Box Z =   78.016
     Alpha =   90.000   Beta  =   90.000   Gamma =   90.000
     NFFT1 =   64       NFFT2 =   64       NFFT3 =   80
     Cutoff=   10.000   Tol   =0.100E-04
     Ewald Coefficient =  0.27511
     Interpolation order =    4

    LOADING THE CONSTRAINED ATOMS AS GROUPS

   5.  REFERENCE ATOM COORDINATES

  default_name
     Mask @CA|:MOL&!@H=; matches   172 atoms

--------------------------------------------------------------------------------
   3.  ATOMIC COORDINATES AND VELOCITIES
--------------------------------------------------------------------------------

default_name
 begin time read from input coords =   550.000 ps

 Number of triangulated 3-point waters found:    10154

     Sum of charges from parm topology file =  -0.00000008
     Forcing neutrality...

--------------------------------------------------------------------------------
   4.  RESULTS
 NSTEP =     5000   TIME(PS) =     560.000  TEMP(K) =   301.83  PRESS =   -48.1
 Etot   =    -83040.8505  EKtot   =     20238.9590  EPtot      =   -103279.8095
 BOND   =       512.3015  ANGLE   =      1294.9819  DIHED      =      2110.6887
 1-4 NB =       600.6859  1-4 EEL =      5167.3309  VDWAALS    =     12971.7387
 EELEC  =   -125952.1949  EHBOND  =         0.0000  RESTRAINT  =        14.6578
 EAMBER (non-restraint)  =   -103294.4673
 EKCMT  =      9273.2959  VIRIAL  =      9617.6184  VOLUME     =    331334.2181
                                                    Density    =         1.0110
 ------------------------------------------------------------------------------

      A V E R A G E S   O V E R      10 S T E P S

 NSTEP =    50000   TIME(PS) =     650.000  TEMP(K) =   299.44  PRESS =    -9.6
 Etot   =    -83269.4327  EKtot   =     20079.1916  EPtot      =   -103348.6243
 BOND   =       501.7162  ANGLE   =      1267.9696  DIHED      =      2078.8910
 1-4 NB =       610.1226  1-4 EEL =      5216.3431  VDWAALS    =     12879.6719
 EELEC  =   -125921.7205  EHBOND  =         0.0000  RESTRAINT  =        18.3818
 EAMBER (non-restraint)  =   -103367.0062
 EKCMT  =      9145.7657  VIRIAL  =      9213.7502  VOLUME     =    331221.6667
                                                    Density    =         1.0113
 ------------------------------------------------------------------------------

      R M S  F L U C T U A T I O N S

 NSTEP =    50000   TIME(PS) =     650.000  TEMP(K) =     1.61  PRESS =    98.1
 Etot   =       128.0694  EKtot   =       107.8033  EPtot      =       150.1512
 BOND   =        18.4654  ANGLE   =        33.5168  DIHED      =        17.6458
 1-4 NB =        13.8814  1-4 EEL =        35.6838  VDWAALS    =       130.0714
 EELEC  =       195.3453  EHBOND  =         0.0000  RESTRAINT  =         2.7087
 EAMBER (non-restraint)  =       147.4424
 EKCMT  =        83.4587  VIRIAL  =       748.6084  VOLUME     =       466.2078
                                                    Density    =         0.0014
 ------------------------------------------------------------------------------
