-------------------------------------------------------
          Amber 20 PMEMD                              2020
          -------------------------------------------------------

  [-O]verwriting output

File Assignments:

 Here is the input file:

npt run
 &cntrl
  ig = -1,
  imin = 0,
  nstlim = 50000, dt = 0.002,
  irest = 1,
  ioutfm = 1,
  ntx = 5,
  ntxo = 2,
  ntb = 2,
  ntp = 1,
  pres0 = 1.0,
  taup = 1.0,
  ntt = 3, gamma_ln = 1.0, tempi = 300, temp0 = 300,
  ntr = 1,
  ntc = 2, ntf = 2,
  ntpr = 5000, ntwx = 10000, ntwr = 10000
  iwrap = 1,
  cut = 10, restraintmask=':2-3,356-357@CA',
  restraint_wt=0.5,
/

Note: ig = -1. Setting random seed to   103935 based on wallclock time in
      microseconds.

--------------------------------------------------------------------------------
   1.  RESOURCE   USE:
--------------------------------------------------------------------------------

 getting box info from netcdf restart file
 NATOM  =   33089 NTYPES =      25 NBONH =   31780 MBONA  =    1321
 NTHETH =    2979 MTHETA =    1777 NPHIH =    6059 MPHIA  =    5536
 NHPARM =       0 NPARM  =       0 NNB   =   55000 NRES   =   10325
 NBONA  =    1321 NTHETA =    1777 NPHIA =    5536 NUMBND =      75
 NUMANG =     163 NPTRA  =     195 NATYP =      44 NPHB   =       1
 IFBOX  =       1 NMXRS  =      24 IFCAP =       0 NEXTRA =       0
 NCOPY  =       0

     BOX TYPE: RECTILINEAR

--------------------------------------------------------------------------------
   2.  CONTROL  DATA  FOR  THE  RUN
--------------------------------------------------------------------------------

default_name

General flags:
     imin    =       0, nmropt  =       0

Nature and format of input:
     ntx     =       5, irest   =       1, ntrx    =       1

Nature and format of output:
     ntxo    =       2, ntpr    =    5000, ntrx    =       1, ntwr    =   10000
     iwrap   =       1, ntwx    =   10000, ntwv    =       0, ntwe    =       0
     ioutfm  =       1, ntwprt  =       0, idecomp =       0, rbornstat=      0

Potential function:
     ntf     =       2, ntb     =       2, igb     =       0, nsnb    =      25
     ipol    =       0, gbsa    =       0, iesp    =       0
     dielc   =   1.00000, cut     =  10.00000, intdiel =   1.00000

Frozen or restrained atoms:
     ibelly  =       0, ntr     =       1
     restraint_wt =   0.50000

Molecular dynamics:
     nstlim  =     50000, nscm    =         0, nrespa  =         1
     t       =   0.00000, dt      =   0.00200, vlimit  =  -1.00000

Langevin dynamics temperature regulation:
     ig      =  103935
     temp0   = 300.00000, tempi   = 300.00000, gamma_ln=   1.00000

Pressure regulation:
     ntp     =       1
     pres0   =   1.00000, comp    =  44.60000, taup    =   1.00000

SHAKE:
     ntc     =       2, jfastw  =       0
     tol     =   0.00001

Ewald parameters:
     verbose =       0, ew_type =       0, nbflag  =       1, use_pme =       1
     vdwmeth =       1, eedmeth =       1, netfrc  =       1
     Box X =   67.296   Box Y =   63.144   Box Z =   78.062
     Alpha =   90.000   Beta  =   90.000   Gamma =   90.000
     NFFT1 =   64       NFFT2 =   64       NFFT3 =   80
     Cutoff=   10.000   Tol   =0.100E-04
     Ewald Coefficient =  0.27511
     Interpolation order =    4

    LOADING THE CONSTRAINED ATOMS AS GROUPS

   5.  REFERENCE ATOM COORDINATES

  default_name
     Mask :2-3,356-357@CA; matches     2 atoms

--------------------------------------------------------------------------------
   3.  ATOMIC COORDINATES AND VELOCITIES
--------------------------------------------------------------------------------

default_name
 begin time read from input coords =   650.000 ps

 Number of triangulated 3-point waters found:    10154

     Sum of charges from parm topology file =  -0.00000008
     Forcing neutrality...

--------------------------------------------------------------------------------
   4.  RESULTS
 NSTEP =     5000   TIME(PS) =     660.000  TEMP(K) =   300.54  PRESS =   117.7
 Etot   =    -83262.3746  EKtot   =     20152.4668  EPtot      =   -103414.8414
 BOND   =       485.9829  ANGLE   =      1245.0577  DIHED      =      2070.5836
 1-4 NB =       598.1478  1-4 EEL =      5171.9401  VDWAALS    =     12905.5854
 EELEC  =   -125893.5347  EHBOND  =         0.0000  RESTRAINT  =         1.3958
 EAMBER (non-restraint)  =   -103416.2372
 EKCMT  =      9200.1060  VIRIAL  =      8360.2162  VOLUME     =    330443.0757
                                                    Density    =         1.0137
 ------------------------------------------------------------------------------

      A V E R A G E S   O V E R      10 S T E P S

 NSTEP =    50000   TIME(PS) =     750.000  TEMP(K) =   300.68  PRESS =    51.0
 Etot   =    -83212.7344  EKtot   =     20162.2945  EPtot      =   -103375.0289
 BOND   =       495.5604  ANGLE   =      1248.6357  DIHED      =      2073.5033
 1-4 NB =       605.7972  1-4 EEL =      5225.1846  VDWAALS    =     12895.0331
 EELEC  =   -125919.5950  EHBOND  =         0.0000  RESTRAINT  =         0.8519
 EAMBER (non-restraint)  =   -103375.8808
 EKCMT  =      9140.1224  VIRIAL  =      8776.4777  VOLUME     =    331118.3102
                                                    Density    =         1.0116
 ------------------------------------------------------------------------------

      R M S  F L U C T U A T I O N S

 NSTEP =    50000   TIME(PS) =     750.000  TEMP(K) =     0.95  PRESS =   121.3
 Etot   =       200.4901  EKtot   =        64.0274  EPtot      =       162.5513
 BOND   =        19.2183  ANGLE   =        18.1127  DIHED      =        19.6209
 1-4 NB =         6.8319  1-4 EEL =        21.3533  VDWAALS    =       137.5901
 EELEC  =       272.7460  EHBOND  =         0.0000  RESTRAINT  =         0.6120
 EAMBER (non-restraint)  =       161.9393
 EKCMT  =        71.7213  VIRIAL  =       874.7623  VOLUME     =       425.1219
                                                    Density    =         0.0013
 ------------------------------------------------------------------------------
