-------------------------------------------------------
          Amber 20 PMEMD                              2020
          -------------------------------------------------------

  [-O]verwriting output

File Assignments:

 Here is the input file:

npt run
 &cntrl
  ig = -1,
  imin = 0,
  nstlim = 3500000, dt = 0.002,
  irest = 1,
  ioutfm = 1,
  ntx = 5,
  ntxo = 2,
  ntb = 1,
  temp0 = 300.0, tempi = 300.0,
  taup = 1.0,
  ntt = 3, gamma_ln = 1.0, tempi = 300, temp0 = 300,
  ntr = 1,
  ntc = 2, ntf = 2,
  ntpr = 5000, ntwx = 5000, ntwr = 100000,
  iwrap = 1,
  cut = 10, restraintmask=':2-3,356-357@CA',
  restraint_wt=0.5,
/

Note: ig = -1. Setting random seed to   712953 based on wallclock time in
      microseconds.

--------------------------------------------------------------------------------
   1.  RESOURCE   USE:
--------------------------------------------------------------------------------

 getting box info from netcdf restart file
 NATOM  =   33089 NTYPES =      25 NBONH =   31780 MBONA  =    1321
 NTHETH =    2979 MTHETA =    1777 NPHIH =    6059 MPHIA  =    5536
 NHPARM =       0 NPARM  =       0 NNB   =   55000 NRES   =   10325
 NBONA  =    1321 NTHETA =    1777 NPHIA =    5536 NUMBND =      75
 NUMANG =     163 NPTRA  =     195 NATYP =      44 NPHB   =       1
 IFBOX  =       1 NMXRS  =      24 IFCAP =       0 NEXTRA =       0
 NCOPY  =       0

     BOX TYPE: RECTILINEAR

--------------------------------------------------------------------------------
   2.  CONTROL  DATA  FOR  THE  RUN
--------------------------------------------------------------------------------

default_name

General flags:
     imin    =       0, nmropt  =       0

Nature and format of input:
     ntx     =       5, irest   =       1, ntrx    =       1

Nature and format of output:
     ntxo    =       2, ntpr    =    5000, ntrx    =       1, ntwr    =  100000
     iwrap   =       1, ntwx    =    5000, ntwv    =       0, ntwe    =       0
     ioutfm  =       1, ntwprt  =       0, idecomp =       0, rbornstat=      0

Potential function:
     ntf     =       2, ntb     =       1, igb     =       0, nsnb    =      25
     ipol    =       0, gbsa    =       0, iesp    =       0
     dielc   =   1.00000, cut     =  10.00000, intdiel =   1.00000

Frozen or restrained atoms:
     ibelly  =       0, ntr     =       1
     restraint_wt =   0.50000

Molecular dynamics:
     nstlim  =   3500000, nscm    =         0, nrespa  =         1
     t       =   0.00000, dt      =   0.00200, vlimit  =  -1.00000

Langevin dynamics temperature regulation:
     ig      =  712953
     temp0   = 300.00000, tempi   = 300.00000, gamma_ln=   1.00000

SHAKE:
     ntc     =       2, jfastw  =       0
     tol     =   0.00001

Ewald parameters:
     verbose =       0, ew_type =       0, nbflag  =       1, use_pme =       1
     vdwmeth =       1, eedmeth =       1, netfrc  =       1
     Box X =   67.238   Box Y =   63.090   Box Z =   77.995
     Alpha =   90.000   Beta  =   90.000   Gamma =   90.000
     NFFT1 =   64       NFFT2 =   64       NFFT3 =   80
     Cutoff=   10.000   Tol   =0.100E-04
     Ewald Coefficient =  0.27511
     Interpolation order =    4

    LOADING THE CONSTRAINED ATOMS AS GROUPS

   5.  REFERENCE ATOM COORDINATES

  default_name
     Mask :2-3,356-357@CA; matches     2 atoms

--------------------------------------------------------------------------------
   3.  ATOMIC COORDINATES AND VELOCITIES
--------------------------------------------------------------------------------

default_name
 begin time read from input coords =   750.000 ps

 Number of triangulated 3-point waters found:    10154

     Sum of charges from parm topology file =  -0.00000008
     Forcing neutrality...

--------------------------------------------------------------------------------
   4.  RESULTS
 NSTEP =     5000   TIME(PS) =     760.000  TEMP(K) =   299.58  PRESS =     0.0
 Etot   =    -83207.4984  EKtot   =     20088.2539  EPtot      =   -103295.7523
 BOND   =       512.1860  ANGLE   =      1286.5586  DIHED      =      2081.7304
 1-4 NB =       593.6005  1-4 EEL =      5188.6648  VDWAALS    =     12707.6574
 EELEC  =   -125666.6266  EHBOND  =         0.0000  RESTRAINT  =         0.4767
 EAMBER (non-restraint)  =   -103296.2291
 ------------------------------------------------------------------------------

      A V E R A G E S   O V E R     700 S T E P S

 NSTEP =  3500000   TIME(PS) =    7750.000  TEMP(K) =   300.10  PRESS =     0.0
 Etot   =    -83277.2004  EKtot   =     20122.9892  EPtot      =   -103400.1897
 BOND   =       506.3229  ANGLE   =      1267.5395  DIHED      =      2070.9701
 1-4 NB =       606.7673  1-4 EEL =      5188.0344  VDWAALS    =     12903.6955
 EELEC  =   -125945.3404  EHBOND  =         0.0000  RESTRAINT  =         1.8211
 EAMBER (non-restraint)  =   -103402.0108
 ------------------------------------------------------------------------------

      R M S  F L U C T U A T I O N S

 NSTEP =  3500000   TIME(PS) =    7750.000  TEMP(K) =     1.53  PRESS =     0.0
 Etot   =       183.4677  EKtot   =       102.7097  EPtot      =       148.4798
 BOND   =        18.4442  ANGLE   =        28.7749  DIHED      =        17.2875
 1-4 NB =        10.4169  1-4 EEL =        38.4521  VDWAALS    =       158.7060
 EELEC  =       234.6136  EHBOND  =         0.0000  RESTRAINT  =         1.1891
 EAMBER (non-restraint)  =       147.2906
 ------------------------------------------------------------------------------
