-------------------------------------------------------
          Amber 20 PMEMD                              2020
          -------------------------------------------------------

  [-O]verwriting output

File Assignments:

 Here is the input file:

NPT prod
 &cntrl
   imin = 0, nstlim = 500000, irest = 0, ntx = 1, dt = 0.002,

   ntt = 3, temp0 = 300.0, tempi = 300.0, tautp = 1.0, gamma_ln = 2.0,

   ntb = 1,
   ntc = 2, ntf = 1,
   cut = 10,
   ioutfm = 1, iwrap = 1,
   ntwe = 1000, ntwx = 2500, ntpr = 1000, ntwr = 100000,

   ntr = 0, restraintmask=':2-3,356-357@CA', restraint_wt=0.5,

   icfe = 1, ifsc = 1, clambda = 0.9, gti_lam_sch = 1,
   scalpha=0.2, scbeta=50.0,
   timask1 = ':MOL', timask2 = '',
   scmask1 = ':MOL', scmask2 = '',

!  ifmbar = 1, mbar_states = 12,
!  mbar_lambda = 0.00922, 0.04794, 0.11505, 0.20634, 0.31608, 0.43738, 0.56262,

   nmropt = 1,
 /
 &wt type='DUMPFREQ', istep1 = 1000
 /
 &wt type='END'
 /
LISTIN=POUT
LISTOUT=POUT
DISANG=../../k.RST

DUMPAVE = rstr_prod.dat

Note: ig = -1. Setting random seed to   303195 based on wallclock time in
      microseconds.

--------------------------------------------------------------------------------
   1.  RESOURCE   USE:
--------------------------------------------------------------------------------

 getting box info from netcdf restart file
 NATOM  =   33089 NTYPES =      25 NBONH =   31780 MBONA  =    1321
 NTHETH =    2979 MTHETA =    1777 NPHIH =    6059 MPHIA  =    5536
 NHPARM =       0 NPARM  =       0 NNB   =   55000 NRES   =   10325
 NBONA  =    1321 NTHETA =    1777 NPHIA =    5536 NUMBND =      75
 NUMANG =     163 NPTRA  =     195 NATYP =      44 NPHB   =       1
 IFBOX  =       1 NMXRS  =      24 IFCAP =       0 NEXTRA =       0
 NCOPY  =       0

     BOX TYPE: RECTILINEAR

--------------------------------------------------------------------------------
   2.  CONTROL  DATA  FOR  THE  RUN
--------------------------------------------------------------------------------

default_name

General flags:
     imin    =       0, nmropt  =       1

Nature and format of input:
     ntx     =       1, irest   =       0, ntrx    =       1

Nature and format of output:
     ntxo    =       2, ntpr    =    1000, ntrx    =       1, ntwr    =  100000
     iwrap   =       1, ntwx    =    2500, ntwv    =       0, ntwe    =    1000
     ioutfm  =       1, ntwprt  =       0, idecomp =       0, rbornstat=      0

Potential function:
     ntf     =       1, ntb     =       1, igb     =       0, nsnb    =      25
     ipol    =       0, gbsa    =       0, iesp    =       0
     dielc   =   1.00000, cut     =  10.00000, intdiel =   1.00000

Frozen or restrained atoms:
     ibelly  =       0, ntr     =       0

Molecular dynamics:
     nstlim  =    500000, nscm    =      1000, nrespa  =         1
     t       =   0.00000, dt      =   0.00200, vlimit  =  -1.00000

Langevin dynamics temperature regulation:
     ig      =  303195
     temp0   = 300.00000, tempi   = 300.00000, gamma_ln=   2.00000

SHAKE:
     ntc     =       2, jfastw  =       0
     tol     =   0.00001

NMR refinement options:
     iscale  =       0, noeskp  =       1, ipnlty  =       1, mxsub   =       1
     scalm   = 100.00000, pencut  =   0.10000, tausw   =   0.10000

Free energy options:
     icfe    =       1, ifsc    =       1, klambda =       1
     clambda =  0.9000, scalpha =  0.2000, scbeta  = 50.0000
     sceeorder =       2
     dynlmb =  0.0000 logdvdl =       0

Ewald parameters:
     verbose =       0, ew_type =       0, nbflag  =       1, use_pme =       1
     vdwmeth =       1, eedmeth =       1, netfrc  =       1
     Box X =   67.378   Box Y =   63.222   Box Z =   78.158
     Alpha =   90.000   Beta  =   90.000   Gamma =   90.000
     NFFT1 =   64       NFFT2 =   64       NFFT3 =   80
     Cutoff=   10.000   Tol   =0.100E-04
     Ewald Coefficient =  0.27511
     Interpolation order =    4
     TI Mask 1 :MOL; matches     18 atoms
     TI Mask 2  matches      0 atoms
     TI region 1:   33089 atoms
     TI region 2:   33071 atoms
     SC Mask 1 :MOL; matches     18 atoms

--------------------------------------------------------------------------------
   3.  ATOMIC COORDINATES AND VELOCITIES
--------------------------------------------------------------------------------

default_name
 begin time read from input coords =   300.000 ps

           Begin reading energy term weight changes/NMR restraints
 WEIGHT CHANGES:
 DUMPFREQ   1000      0    0.000000    0.000000      0      0
                         ** No weight changes given **

 RESTRAINTS:
 Requested file redirections:
  LISTIN    = POUT
  LISTOUT   = POUT
  DISANG    = ../../k.RST
  DUMPAVE   = rstr_prod.dat
 Restraints will be read from file: ../../k.RST
Here are comments from the DISANG input file:

******
 C6  (   11)-CA  ( 1581)                            NSTEP1=     0 NSTEP2=     0
R1 =  -6.056 R2 =   3.944 R3 =   3.944 R4 =  13.944 RK2 =   2.000 RK3 =    2.000
 Rcurr:    4.393  Rcurr-(R2+R3)/2:    0.449  MIN(Rcurr-R2,Rcurr-R3):    0.449
******
 C6  (   11)-CA  ( 1581)-CA  ( 1591)                NSTEP1=     0 NSTEP2=     0
R1 =  41.906 R2 = 131.906 R3 = 131.906 R4 = 221.906 RK2 =  10.000 RK3 =   10.000
 Rcurr:  130.736  Rcurr-(R2+R3)/2:    1.170  MIN(Rcurr-R2,Rcurr-R3):    1.170
******
 C6  (   11)-CA  ( 1581)-CA  ( 1591)-CA  ( 1610)    NSTEP1=     0 NSTEP2=     0
R1 =-212.693 R2 =-122.693 R3 =-122.693 R4 = -32.693 RK2 =  20.000 RK3 =   20.000
 Rcurr: -122.839  Rcurr-(R2+R3)/2:    0.146  MIN(Rcurr-R2,Rcurr-R3):    0.146
******
 C1  (    1)-C6  (   11)-CA  ( 1581)                NSTEP1=     0 NSTEP2=     0
R1 = -30.733 R2 =  59.267 R3 =  59.267 R4 = 149.267 RK2 =  10.000 RK3 =   10.000
 Rcurr:   73.489  Rcurr-(R2+R3)/2:   14.223  MIN(Rcurr-R2,Rcurr-R3):   14.223
******
 C1  (    1)-C6  (   11)-CA  ( 1581)-CA  ( 1591)    NSTEP1=     0 NSTEP2=     0
R1 = -71.599 R2 =  18.401 R3 =  18.401 R4 = 108.401 RK2 =  20.000 RK3 =   20.000
 Rcurr:   21.807  Rcurr-(R2+R3)/2:    3.406  MIN(Rcurr-R2,Rcurr-R3):    3.406
******
 C2  (    3)-C1  (    1)-C6  (   11)-CA  ( 1581)    NSTEP1=     0 NSTEP2=     0
R1 =-194.315 R2 =-104.315 R3 =-104.315 R4 = -14.315 RK2 =  20.000 RK3 =   20.000
 Rcurr: -108.666  Rcurr-(R2+R3)/2:    4.351  MIN(Rcurr-R2,Rcurr-R3):    4.351
                       Number of restraints read =     6

                  Done reading weight changes/NMR restraints

 Number of triangulated 3-point waters found:    10154
 Number of shake restraints removed in TI region  1 :        0
 Number of shake restraints removed in TI region  2 :        0

     Sum of charges for TI region  1 =  -0.00000008
     Skip neutralizing charges...

     Sum of charges for TI region  2 =  -0.00000007
     Skip neutralizing charges...

--------------------------------------------------------------------------------
   4.  RESULTS
 NSTEP =        0   TIME(PS) =       0.000  TEMP(K) =   441.08  PRESS =     0.0
 Etot   =    -73551.2562  EKtot   =     29576.2237  EPtot      =   -103127.4798
 BOND   =       497.3576  ANGLE   =      1275.9932  DIHED      =      2087.9857
 1-4 NB =       599.8014  1-4 EEL =      5228.9006  VDWAALS    =     12727.4127
 EELEC  =   -125546.1406  EHBOND  =         0.0000  RESTRAINT  =         1.2095
 EAMBER (non-restraint)  =   -103128.6893
 DV/DL  =         4.6717
 ------------------------------------------------------------------------------

      A V E R A G E S   O V E R     500 S T E P S

 NSTEP =   500000   TIME(PS) =    1000.000  TEMP(K) =   299.95  PRESS =     0.0
 Etot   =    -83102.9407  EKtot   =     20112.8036  EPtot      =   -103215.7443
 BOND   =       502.9293  ANGLE   =      1263.9852  DIHED      =      2069.6537
 1-4 NB =       603.7551  1-4 EEL =      5220.3585  VDWAALS    =     12838.9792
 EELEC  =   -125717.1602  EHBOND  =         0.0000  RESTRAINT  =         1.7549
 EAMBER (non-restraint)  =   -103217.4992
 DV/DL  =       -11.9799
 ------------------------------------------------------------------------------

      R M S  F L U C T U A T I O N S

 NSTEP =   500000   TIME(PS) =    1000.000  TEMP(K) =     1.62  PRESS =     0.0
 Etot   =       178.7354  EKtot   =       108.6818  EPtot      =       150.9097
 BOND   =        18.8894  ANGLE   =        28.9146  DIHED      =        15.4257
 1-4 NB =        10.6512  1-4 EEL =        29.1618  VDWAALS    =       156.5641
 EELEC  =       237.1137  EHBOND  =         0.0000  RESTRAINT  =         1.0173
 EAMBER (non-restraint)  =       149.8923
 DV/DL  =         7.0632
 ------------------------------------------------------------------------------

      A V E R A G E S   O V E R     500 S T E P S

 NSTEP =   500000   TIME(PS) =    1000.000  TEMP(K) =   299.95  PRESS =     0.0
 Etot   =    -83116.4337  EKtot   =     20099.3106  EPtot      =   -103215.7443
 BOND   =       502.9293  ANGLE   =      1263.9852  DIHED      =      2069.6537
 1-4 NB =       603.7551  1-4 EEL =      5220.3585  VDWAALS    =     12838.9792
 EELEC  =   -125717.1602  EHBOND  =         0.0000  RESTRAINT  =         1.7549
 EAMBER (non-restraint)  =   -103217.4992
 DV/DL  =       -11.9799
 ------------------------------------------------------------------------------

      R M S  F L U C T U A T I O N S

 NSTEP =   500000   TIME(PS) =    1000.000  TEMP(K) =     1.62  PRESS =     0.0
 Etot   =       178.8809  EKtot   =       108.8502  EPtot      =       150.9097
 BOND   =        18.8894  ANGLE   =        28.9146  DIHED      =        15.4257
 1-4 NB =        10.6512  1-4 EEL =        29.1618  VDWAALS    =       156.5641
 EELEC  =       237.1137  EHBOND  =         0.0000  RESTRAINT  =         1.0173
 EAMBER (non-restraint)  =       149.8923
 DV/DL  =         7.0632
 ------------------------------------------------------------------------------

      DV/DL, AVERAGES OVER     500 STEPS

 NSTEP =   500000   TIME(PS) =    1000.000  TEMP(K) =     1.62  PRESS =     0.0
 Etot   =         0.0000  EKtot   =         0.0000  EPtot      =       -11.9799
 BOND   =         0.0000  ANGLE   =         0.0000  DIHED      =         0.0000
 1-4 NB =         0.0000  1-4 EEL =         0.0000  VDWAALS    =       -11.8187
 EELEC  =         0.1452  EHBOND  =         0.0000  RESTRAINT  =         0.0000
 DV/DL  =       -11.9799
 ------------------------------------------------------------------------------
