-------------------------------------------------------
          Amber 20 PMEMD                              2020
          -------------------------------------------------------

  [-O]verwriting output

File Assignments:

 Here is the input file:

&cntrl
 ig=-1,
 iwrap = 1,
 imin = 0,
 nstlim = 50000, dt = 0.002,
 irest = 1,
 ioutfm = 1,
 ntxo = 2,
 ntx = 5,
 ntb = 2,
 ntp = 1, barostat = 2, pres0 = 1.0,
 taup = 1.0,
 ntt = 3, gamma_ln = 1.0, tempi = 300.0, temp0 = 300.0,
 ntr = 1,
 ntc = 2, ntf = 1,
 cut = 10.0,
 ntpr=1000, ntwx=1000, ntwr=1000,

 restraintmask='@CA|:MOL&!@H=',
 restraint_wt=5.0,

 icfe = 1, ifsc = 1, clambda = 0.7, gti_lam_sch = 1,
   scalpha=0.2, scbeta=50.0,
 timask1 = ':MOL', timask2 = '',
 scmask1 = ':MOL', scmask2 = '',

 nmropt = 1,
 /
 &wt type='DUMPFREQ', istep1 = 1000
 /
 &wt type='END'
 /
LISTIN=POUT
LISTOUT=POUT
DISANG=../../k.RST
DUMPAVE = rstr_npt2.dat

Note: ig = -1. Setting random seed to   992258 based on wallclock time in
      microseconds.

--------------------------------------------------------------------------------
   1.  RESOURCE   USE:
--------------------------------------------------------------------------------

 getting box info from netcdf restart file
 NATOM  =   33089 NTYPES =      25 NBONH =   31780 MBONA  =    1321
 NTHETH =    2979 MTHETA =    1777 NPHIH =    6059 MPHIA  =    5536
 NHPARM =       0 NPARM  =       0 NNB   =   55000 NRES   =   10325
 NBONA  =    1321 NTHETA =    1777 NPHIA =    5536 NUMBND =      75
 NUMANG =     163 NPTRA  =     195 NATYP =      44 NPHB   =       1
 IFBOX  =       1 NMXRS  =      24 IFCAP =       0 NEXTRA =       0
 NCOPY  =       0

     BOX TYPE: RECTILINEAR

--------------------------------------------------------------------------------
   2.  CONTROL  DATA  FOR  THE  RUN
--------------------------------------------------------------------------------

default_name

General flags:
     imin    =       0, nmropt  =       1

Nature and format of input:
     ntx     =       5, irest   =       1, ntrx    =       1

Nature and format of output:
     ntxo    =       2, ntpr    =    1000, ntrx    =       1, ntwr    =    1000
     iwrap   =       1, ntwx    =    1000, ntwv    =       0, ntwe    =       0
     ioutfm  =       1, ntwprt  =       0, idecomp =       0, rbornstat=      0

Potential function:
     ntf     =       1, ntb     =       2, igb     =       0, nsnb    =      25
     ipol    =       0, gbsa    =       0, iesp    =       0
     dielc   =   1.00000, cut     =  10.00000, intdiel =   1.00000

Frozen or restrained atoms:
     ibelly  =       0, ntr     =       1
     restraint_wt =   5.00000

Molecular dynamics:
     nstlim  =     50000, nscm    =         0, nrespa  =         1
     t       =   0.00000, dt      =   0.00200, vlimit  =  -1.00000

Langevin dynamics temperature regulation:
     ig      =  992258
     temp0   = 300.00000, tempi   = 300.00000, gamma_ln=   1.00000

Pressure regulation:
     ntp     =       1
     pres0   =   1.00000, comp    =  44.60000, taup    =   1.00000
     Monte-Carlo Barostat:
     mcbarint  =     100

SHAKE:
     ntc     =       2, jfastw  =       0
     tol     =   0.00001

NMR refinement options:
     iscale  =       0, noeskp  =       1, ipnlty  =       1, mxsub   =       1
     scalm   = 100.00000, pencut  =   0.10000, tausw   =   0.10000

Free energy options:
     icfe    =       1, ifsc    =       1, klambda =       1
     clambda =  0.7000, scalpha =  0.2000, scbeta  = 50.0000
     sceeorder =       2
     dynlmb =  0.0000 logdvdl =       0

Ewald parameters:
     verbose =       0, ew_type =       0, nbflag  =       1, use_pme =       1
     vdwmeth =       1, eedmeth =       1, netfrc  =       1
     Box X =   67.309   Box Y =   63.157   Box Z =   78.078
     Alpha =   90.000   Beta  =   90.000   Gamma =   90.000
     NFFT1 =   64       NFFT2 =   64       NFFT3 =   80
     Cutoff=   10.000   Tol   =0.100E-04
     Ewald Coefficient =  0.27511
     Interpolation order =    4

    LOADING THE CONSTRAINED ATOMS AS GROUPS

   5.  REFERENCE ATOM COORDINATES

  default_name
     Mask @CA|:MOL&!@H=; matches   172 atoms
     TI Mask 1 :MOL; matches     18 atoms
     TI Mask 2  matches      0 atoms
     TI region 1:   33089 atoms
     TI region 2:   33071 atoms
     SC Mask 1 :MOL; matches     18 atoms

--------------------------------------------------------------------------------
   3.  ATOMIC COORDINATES AND VELOCITIES
--------------------------------------------------------------------------------

default_name
 begin time read from input coords =   100.000 ps

           Begin reading energy term weight changes/NMR restraints
 WEIGHT CHANGES:
 DUMPFREQ   1000      0    0.000000    0.000000      0      0
                         ** No weight changes given **

 RESTRAINTS:
 Requested file redirections:
  LISTIN    = POUT
  LISTOUT   = POUT
  DISANG    = ../../k.RST
  DUMPAVE   = rstr_npt2.dat
 Restraints will be read from file: ../../k.RST
Here are comments from the DISANG input file:

******
 C6  (   11)-CA  ( 1581)                            NSTEP1=     0 NSTEP2=     0
R1 =  -6.056 R2 =   3.944 R3 =   3.944 R4 =  13.944 RK2 =   2.000 RK3 =    2.000
 Rcurr:    4.143  Rcurr-(R2+R3)/2:    0.199  MIN(Rcurr-R2,Rcurr-R3):    0.199
******
 C6  (   11)-CA  ( 1581)-CA  ( 1591)                NSTEP1=     0 NSTEP2=     0
R1 =  41.906 R2 = 131.906 R3 = 131.906 R4 = 221.906 RK2 =  10.000 RK3 =   10.000
 Rcurr:  127.384  Rcurr-(R2+R3)/2:    4.521  MIN(Rcurr-R2,Rcurr-R3):    4.521
******
 C6  (   11)-CA  ( 1581)-CA  ( 1591)-CA  ( 1610)    NSTEP1=     0 NSTEP2=     0
R1 =-212.693 R2 =-122.693 R3 =-122.693 R4 = -32.693 RK2 =  20.000 RK3 =   20.000
 Rcurr: -118.632  Rcurr-(R2+R3)/2:    4.061  MIN(Rcurr-R2,Rcurr-R3):    4.061
******
 C1  (    1)-C6  (   11)-CA  ( 1581)                NSTEP1=     0 NSTEP2=     0
R1 = -30.733 R2 =  59.267 R3 =  59.267 R4 = 149.267 RK2 =  10.000 RK3 =   10.000
 Rcurr:   62.441  Rcurr-(R2+R3)/2:    3.174  MIN(Rcurr-R2,Rcurr-R3):    3.174
******
 C1  (    1)-C6  (   11)-CA  ( 1581)-CA  ( 1591)    NSTEP1=     0 NSTEP2=     0
R1 = -71.599 R2 =  18.401 R3 =  18.401 R4 = 108.401 RK2 =  20.000 RK3 =   20.000
 Rcurr:   17.084  Rcurr-(R2+R3)/2:    1.317  MIN(Rcurr-R2,Rcurr-R3):    1.317
******
 C2  (    3)-C1  (    1)-C6  (   11)-CA  ( 1581)    NSTEP1=     0 NSTEP2=     0
R1 =-194.315 R2 =-104.315 R3 =-104.315 R4 = -14.315 RK2 =  20.000 RK3 =   20.000
 Rcurr:  -96.371  Rcurr-(R2+R3)/2:    7.944  MIN(Rcurr-R2,Rcurr-R3):    7.944
                       Number of restraints read =     6

                  Done reading weight changes/NMR restraints

     Molecule     1 is completely softcore and skipped for C.O.M..
 Number of triangulated 3-point waters found:    10154
 Number of shake restraints removed in TI region  1 :        0
 Number of shake restraints removed in TI region  2 :        0

     Sum of charges for TI region  1 =  -0.00000008
     Skip neutralizing charges...

     Sum of charges for TI region  2 =  -0.00000007
     Skip neutralizing charges...

--------------------------------------------------------------------------------
   4.  RESULTS
 NSTEP =     1000   TIME(PS) =     102.000  TEMP(K) =   299.80  PRESS =     0.0
 Etot   =    -83367.6350  EKtot   =     20102.8906  EPtot      =   -103470.5256
 BOND   =       485.5149  ANGLE   =      1252.6679  DIHED      =      2075.1615
 1-4 NB =       604.8695  1-4 EEL =      5254.9904  VDWAALS    =     12820.7377
 EELEC  =   -126010.9964  EHBOND  =         0.0000  RESTRAINT  =        46.5290
 EAMBER (non-restraint)  =   -103517.0546
 EKCMT  =         0.0000  VIRIAL  =         0.0000  VOLUME     =    331739.8253
                                                    Density    =         1.0097
 DV/DL  =        37.3314
 ------------------------------------------------------------------------------

      A V E R A G E S   O V E R      50 S T E P S

 NSTEP =    50000   TIME(PS) =     200.000  TEMP(K) =   300.11  PRESS =     0.0
 Etot   =    -83134.7408  EKtot   =     20123.7226  EPtot      =   -103258.4634
 BOND   =       500.0493  ANGLE   =      1252.5240  DIHED      =      2075.3046
 1-4 NB =       604.1805  1-4 EEL =      5228.6312  VDWAALS    =     12828.5684
 EELEC  =   -125803.2391  EHBOND  =         0.0000  RESTRAINT  =        55.5179
 EAMBER (non-restraint)  =   -103313.9812
 EKCMT  =         0.0000  VIRIAL  =         0.0000  VOLUME     =    331268.0259
                                                    Density    =         1.0112
 DV/DL  =        35.3024
 ------------------------------------------------------------------------------

      R M S  F L U C T U A T I O N S

 NSTEP =    50000   TIME(PS) =     200.000  TEMP(K) =     1.26  PRESS =     0.0
 Etot   =       155.6304  EKtot   =        84.4052  EPtot      =       148.7642
 BOND   =        20.6884  ANGLE   =        25.3988  DIHED      =        14.4181
 1-4 NB =         9.0713  1-4 EEL =        26.6409  VDWAALS    =       149.4379
 EELEC  =       230.7513  EHBOND  =         0.0000  RESTRAINT  =         4.6482
 EAMBER (non-restraint)  =       144.1159
 EKCMT  =         0.0000  VIRIAL  =         0.0000  VOLUME     =       715.5429
                                                    Density    =         0.0022
 DV/DL  =         3.7067
 ------------------------------------------------------------------------------

      A V E R A G E S   O V E R      50 S T E P S

 NSTEP =    50000   TIME(PS) =     200.000  TEMP(K) =   300.12  PRESS =     0.0
 Etot   =    -83147.7657  EKtot   =     20110.6977  EPtot      =   -103258.4634
 BOND   =       500.0493  ANGLE   =      1252.5240  DIHED      =      2075.3046
 1-4 NB =       604.1805  1-4 EEL =      5228.6312  VDWAALS    =     12828.5684
 EELEC  =   -125803.2391  EHBOND  =         0.0000  RESTRAINT  =        55.5179
 EAMBER (non-restraint)  =   -103313.9812
 EKCMT  =         0.0000  VIRIAL  =         0.0000  VOLUME     =    331268.0259
                                                    Density    =         1.0105
 DV/DL  =        35.3024
 ------------------------------------------------------------------------------

      R M S  F L U C T U A T I O N S

 NSTEP =    50000   TIME(PS) =     200.000  TEMP(K) =     1.25  PRESS =     0.0
 Etot   =       156.0095  EKtot   =        84.0595  EPtot      =       148.7642
 BOND   =        20.6884  ANGLE   =        25.3988  DIHED      =        14.4181
 1-4 NB =         9.0713  1-4 EEL =        26.6409  VDWAALS    =       149.4379
 EELEC  =       230.7513  EHBOND  =         0.0000  RESTRAINT  =         4.6482
 EAMBER (non-restraint)  =       144.1159
 EKCMT  =         0.0000  VIRIAL  =         0.0000  VOLUME     =       715.5429
                                                    Density    =         0.0022
 DV/DL  =         3.7067
 ------------------------------------------------------------------------------

      DV/DL, AVERAGES OVER      50 STEPS

 NSTEP =    50000   TIME(PS) =     200.000  TEMP(K) =     1.25  PRESS =     0.0
 Etot   =         0.0000  EKtot   =         0.0000  EPtot      =         0.0000
 BOND   =         0.0000  ANGLE   =         0.0000  DIHED      =         0.0000
 1-4 NB =         0.0000  1-4 EEL =         0.0000  VDWAALS    =        34.5839
 EELEC  =         2.3019  EHBOND  =         0.0000  RESTRAINT  =         0.0000
 EKCMT  =         0.0000  VIRIAL  =         0.0000  VOLUME     =         0.0000
                                                    Density    =         0.0000
 ------------------------------------------------------------------------------
