-------------------------------------------------------
          Amber 20 PMEMD                              2020
          -------------------------------------------------------

  [-O]verwriting output

File Assignments:

 Here is the input file:

npt run
 &cntrl
  ig = -1,
  imin = 0,
  nstlim = 3500000, dt = 0.002,
  irest = 1,
  ioutfm = 1,
  ntx = 5,
  ntxo = 2,
  ntb = 1,
  temp0 = 300.0, tempi = 300.0,
  taup = 1.0,
  ntt = 3, gamma_ln = 1.0, tempi = 300, temp0 = 300,
  ntr = 1,
  ntc = 2, ntf = 2,
  ntpr = 5000, ntwx = 5000, ntwr = 100000,
  iwrap = 1,
  cut = 10, restraintmask=':2-3,356-357@CA',
  restraint_wt=0.5,
/

Note: ig = -1. Setting random seed to   721977 based on wallclock time in
      microseconds.

--------------------------------------------------------------------------------
   1.  RESOURCE   USE:
--------------------------------------------------------------------------------

 getting box info from netcdf restart file
 NATOM  =   33089 NTYPES =      25 NBONH =   31780 MBONA  =    1321
 NTHETH =    2979 MTHETA =    1777 NPHIH =    6059 MPHIA  =    5536
 NHPARM =       0 NPARM  =       0 NNB   =   55000 NRES   =   10325
 NBONA  =    1321 NTHETA =    1777 NPHIA =    5536 NUMBND =      75
 NUMANG =     163 NPTRA  =     195 NATYP =      44 NPHB   =       1
 IFBOX  =       1 NMXRS  =      24 IFCAP =       0 NEXTRA =       0
 NCOPY  =       0

     BOX TYPE: RECTILINEAR

--------------------------------------------------------------------------------
   2.  CONTROL  DATA  FOR  THE  RUN
--------------------------------------------------------------------------------

default_name

General flags:
     imin    =       0, nmropt  =       0

Nature and format of input:
     ntx     =       5, irest   =       1, ntrx    =       1

Nature and format of output:
     ntxo    =       2, ntpr    =    5000, ntrx    =       1, ntwr    =  100000
     iwrap   =       1, ntwx    =    5000, ntwv    =       0, ntwe    =       0
     ioutfm  =       1, ntwprt  =       0, idecomp =       0, rbornstat=      0

Potential function:
     ntf     =       2, ntb     =       1, igb     =       0, nsnb    =      25
     ipol    =       0, gbsa    =       0, iesp    =       0
     dielc   =   1.00000, cut     =  10.00000, intdiel =   1.00000

Frozen or restrained atoms:
     ibelly  =       0, ntr     =       1
     restraint_wt =   0.50000

Molecular dynamics:
     nstlim  =   3500000, nscm    =         0, nrespa  =         1
     t       =   0.00000, dt      =   0.00200, vlimit  =  -1.00000

Langevin dynamics temperature regulation:
     ig      =  721977
     temp0   = 300.00000, tempi   = 300.00000, gamma_ln=   1.00000

SHAKE:
     ntc     =       2, jfastw  =       0
     tol     =   0.00001

Ewald parameters:
     verbose =       0, ew_type =       0, nbflag  =       1, use_pme =       1
     vdwmeth =       1, eedmeth =       1, netfrc  =       1
     Box X =   67.277   Box Y =   63.127   Box Z =   78.040
     Alpha =   90.000   Beta  =   90.000   Gamma =   90.000
     NFFT1 =   64       NFFT2 =   64       NFFT3 =   80
     Cutoff=   10.000   Tol   =0.100E-04
     Ewald Coefficient =  0.27511
     Interpolation order =    4

    LOADING THE CONSTRAINED ATOMS AS GROUPS

   5.  REFERENCE ATOM COORDINATES

  default_name
     Mask :2-3,356-357@CA; matches     2 atoms

--------------------------------------------------------------------------------
   3.  ATOMIC COORDINATES AND VELOCITIES
--------------------------------------------------------------------------------

default_name
 begin time read from input coords =   750.000 ps

 Number of triangulated 3-point waters found:    10154

     Sum of charges from parm topology file =  -0.00000107
     Forcing neutrality...

--------------------------------------------------------------------------------
   4.  RESULTS
 NSTEP =     5000   TIME(PS) =     760.000  TEMP(K) =   298.67  PRESS =     0.0
 Etot   =    -83345.4108  EKtot   =     20027.2012  EPtot      =   -103372.6120
 BOND   =       501.5830  ANGLE   =      1259.5984  DIHED      =      2087.7755
 1-4 NB =       604.1011  1-4 EEL =      5202.5074  VDWAALS    =     12914.3018
 EELEC  =   -125942.6704  EHBOND  =         0.0000  RESTRAINT  =         0.1913
 EAMBER (non-restraint)  =   -103372.8032
 ------------------------------------------------------------------------------

      A V E R A G E S   O V E R     700 S T E P S

 NSTEP =  3500000   TIME(PS) =    7750.000  TEMP(K) =   299.98  PRESS =     0.0
 Etot   =    -83235.3330  EKtot   =     20115.0881  EPtot      =   -103350.4212
 BOND   =       505.9593  ANGLE   =      1270.2172  DIHED      =      2076.2187
 1-4 NB =       606.6922  1-4 EEL =      5215.0500  VDWAALS    =     12851.4717
 EELEC  =   -125877.1096  EHBOND  =         0.0000  RESTRAINT  =         1.0793
 EAMBER (non-restraint)  =   -103351.5005
 ------------------------------------------------------------------------------

      R M S  F L U C T U A T I O N S

 NSTEP =  3500000   TIME(PS) =    7750.000  TEMP(K) =     1.68  PRESS =     0.0
 Etot   =       187.2575  EKtot   =       112.6431  EPtot      =       147.4560
 BOND   =        19.3847  ANGLE   =        27.7679  DIHED      =        16.1304
 1-4 NB =        10.4874  1-4 EEL =        30.7464  VDWAALS    =       156.5196
 EELEC  =       239.6714  EHBOND  =         0.0000  RESTRAINT  =         0.7985
 EAMBER (non-restraint)  =       146.6575
 ------------------------------------------------------------------------------
