-------------------------------------------------------
          Amber 20 PMEMD                              2020
          -------------------------------------------------------

  [-O]verwriting output

File Assignments:

 Here is the input file:

NPT prod
 &cntrl
   imin = 0, nstlim = 50000, irest = 1, ntx = 5, dt = 0.002,

   ntt = 3, temp0 = 300.0, tempi = 300.0, tautp = 1.0, gamma_ln = 2.0,
   ntp = 1, barostat = 2, pres0 = 1.0, taup = 1.0,

   ntb = 2,
   ntc = 2, ntf = 1,
   cut = 10,
   ioutfm = 1, iwrap = 1,
   ntwe = 1000, ntwx = 1000, ntpr = 1000, ntwr = 5000,

   ntr = 1, restraintmask='@CA', restraint_wt=0.5,

   icfe = 1, ifsc = 1, clambda = 0.1, gti_lam_sch = 1,
   scalpha=0.2, scbeta=50.0,
   timask1 = ':MOL', timask2 = '',
   scmask1 = ':MOL', scmask2 = '',

   nmropt = 1,
 /
 &wt type='DUMPFREQ', istep1 = 1000
 /
 &wt type='END'
 /
LISTIN=POUT
LISTOUT=POUT
DISANG=../../k.RST
DUMPAVE = rstr_npt3.dat

Note: ig = -1. Setting random seed to   341386 based on wallclock time in
      microseconds.

--------------------------------------------------------------------------------
   1.  RESOURCE   USE:
--------------------------------------------------------------------------------

 getting box info from netcdf restart file
 NATOM  =   33089 NTYPES =      25 NBONH =   31780 MBONA  =    1321
 NTHETH =    2979 MTHETA =    1777 NPHIH =    6059 MPHIA  =    5536
 NHPARM =       0 NPARM  =       0 NNB   =   55000 NRES   =   10325
 NBONA  =    1321 NTHETA =    1777 NPHIA =    5536 NUMBND =      75
 NUMANG =     163 NPTRA  =     195 NATYP =      44 NPHB   =       1
 IFBOX  =       1 NMXRS  =      24 IFCAP =       0 NEXTRA =       0
 NCOPY  =       0

     BOX TYPE: RECTILINEAR

--------------------------------------------------------------------------------
   2.  CONTROL  DATA  FOR  THE  RUN
--------------------------------------------------------------------------------

default_name

General flags:
     imin    =       0, nmropt  =       1

Nature and format of input:
     ntx     =       5, irest   =       1, ntrx    =       1

Nature and format of output:
     ntxo    =       2, ntpr    =    1000, ntrx    =       1, ntwr    =    5000
     iwrap   =       1, ntwx    =    1000, ntwv    =       0, ntwe    =    1000
     ioutfm  =       1, ntwprt  =       0, idecomp =       0, rbornstat=      0

Potential function:
     ntf     =       1, ntb     =       2, igb     =       0, nsnb    =      25
     ipol    =       0, gbsa    =       0, iesp    =       0
     dielc   =   1.00000, cut     =  10.00000, intdiel =   1.00000

Frozen or restrained atoms:
     ibelly  =       0, ntr     =       1
     restraint_wt =   0.50000

Molecular dynamics:
     nstlim  =     50000, nscm    =         0, nrespa  =         1
     t       =   0.00000, dt      =   0.00200, vlimit  =  -1.00000

Langevin dynamics temperature regulation:
     ig      =  341386
     temp0   = 300.00000, tempi   = 300.00000, gamma_ln=   2.00000

Pressure regulation:
     ntp     =       1
     pres0   =   1.00000, comp    =  44.60000, taup    =   1.00000
     Monte-Carlo Barostat:
     mcbarint  =     100

SHAKE:
     ntc     =       2, jfastw  =       0
     tol     =   0.00001

NMR refinement options:
     iscale  =       0, noeskp  =       1, ipnlty  =       1, mxsub   =       1
     scalm   = 100.00000, pencut  =   0.10000, tausw   =   0.10000

Free energy options:
     icfe    =       1, ifsc    =       1, klambda =       1
     clambda =  0.1000, scalpha =  0.2000, scbeta  = 50.0000
     sceeorder =       2
     dynlmb =  0.0000 logdvdl =       0

Ewald parameters:
     verbose =       0, ew_type =       0, nbflag  =       1, use_pme =       1
     vdwmeth =       1, eedmeth =       1, netfrc  =       1
     Box X =   67.206   Box Y =   63.060   Box Z =   77.958
     Alpha =   90.000   Beta  =   90.000   Gamma =   90.000
     NFFT1 =   64       NFFT2 =   64       NFFT3 =   80
     Cutoff=   10.000   Tol   =0.100E-04
     Ewald Coefficient =  0.27511
     Interpolation order =    4

    LOADING THE CONSTRAINED ATOMS AS GROUPS

   5.  REFERENCE ATOM COORDINATES

  default_name
     Mask @CA; matches   162 atoms
     TI Mask 1 :MOL; matches     18 atoms
     TI Mask 2  matches      0 atoms
     TI region 1:   33089 atoms
     TI region 2:   33071 atoms
     SC Mask 1 :MOL; matches     18 atoms

--------------------------------------------------------------------------------
   3.  ATOMIC COORDINATES AND VELOCITIES
--------------------------------------------------------------------------------

default_name
 begin time read from input coords =   200.000 ps

           Begin reading energy term weight changes/NMR restraints
 WEIGHT CHANGES:
 DUMPFREQ   1000      0    0.000000    0.000000      0      0
                         ** No weight changes given **

 RESTRAINTS:
 Requested file redirections:
  LISTIN    = POUT
  LISTOUT   = POUT
  DISANG    = ../../k.RST
  DUMPAVE   = rstr_npt3.dat
 Restraints will be read from file: ../../k.RST
Here are comments from the DISANG input file:

******
 C6  (   11)-CA  ( 1581)                            NSTEP1=     0 NSTEP2=     0
R1 =  -6.056 R2 =   3.944 R3 =   3.944 R4 =  13.944 RK2 =   2.000 RK3 =    2.000
 Rcurr:    4.384  Rcurr-(R2+R3)/2:    0.441  MIN(Rcurr-R2,Rcurr-R3):    0.441
******
 C6  (   11)-CA  ( 1581)-CA  ( 1591)                NSTEP1=     0 NSTEP2=     0
R1 =  41.906 R2 = 131.906 R3 = 131.906 R4 = 221.906 RK2 =  10.000 RK3 =   10.000
 Rcurr:  129.627  Rcurr-(R2+R3)/2:    2.278  MIN(Rcurr-R2,Rcurr-R3):    2.278
******
 C6  (   11)-CA  ( 1581)-CA  ( 1591)-CA  ( 1610)    NSTEP1=     0 NSTEP2=     0
R1 =-212.693 R2 =-122.693 R3 =-122.693 R4 = -32.693 RK2 =  20.000 RK3 =   20.000
 Rcurr: -111.732  Rcurr-(R2+R3)/2:   10.960  MIN(Rcurr-R2,Rcurr-R3):   10.960
******
 C1  (    1)-C6  (   11)-CA  ( 1581)                NSTEP1=     0 NSTEP2=     0
R1 = -30.733 R2 =  59.267 R3 =  59.267 R4 = 149.267 RK2 =  10.000 RK3 =   10.000
 Rcurr:   54.754  Rcurr-(R2+R3)/2:    4.513  MIN(Rcurr-R2,Rcurr-R3):    4.513
******
 C1  (    1)-C6  (   11)-CA  ( 1581)-CA  ( 1591)    NSTEP1=     0 NSTEP2=     0
R1 = -71.599 R2 =  18.401 R3 =  18.401 R4 = 108.401 RK2 =  20.000 RK3 =   20.000
 Rcurr:    8.393  Rcurr-(R2+R3)/2:   10.008  MIN(Rcurr-R2,Rcurr-R3):   10.008
******
 C2  (    3)-C1  (    1)-C6  (   11)-CA  ( 1581)    NSTEP1=     0 NSTEP2=     0
R1 =-194.315 R2 =-104.315 R3 =-104.315 R4 = -14.315 RK2 =  20.000 RK3 =   20.000
 Rcurr:  -88.891  Rcurr-(R2+R3)/2:   15.425  MIN(Rcurr-R2,Rcurr-R3):   15.425
                       Number of restraints read =     6

                  Done reading weight changes/NMR restraints

     Molecule     1 is completely softcore and skipped for C.O.M..
 Number of triangulated 3-point waters found:    10154
 Number of shake restraints removed in TI region  1 :        0
 Number of shake restraints removed in TI region  2 :        0

     Sum of charges for TI region  1 =  -0.00000008
     Skip neutralizing charges...

     Sum of charges for TI region  2 =  -0.00000007
     Skip neutralizing charges...

--------------------------------------------------------------------------------
   4.  RESULTS
 NSTEP =     1000   TIME(PS) =     202.000  TEMP(K) =   302.52  PRESS =     0.0
 Etot   =    -83196.4641  EKtot   =     20285.7480  EPtot      =   -103482.2122
 BOND   =       495.1916  ANGLE   =      1235.1620  DIHED      =      2061.2963
 1-4 NB =       608.1932  1-4 EEL =      5220.1004  VDWAALS    =     12986.4397
 EELEC  =   -126104.6891  EHBOND  =         0.0000  RESTRAINT  =        16.0938
 EAMBER (non-restraint)  =   -103498.3060
 EKCMT  =         0.0000  VIRIAL  =         0.0000  VOLUME     =    330390.6737
                                                    Density    =         1.0139
 DV/DL  =        13.9346
 ------------------------------------------------------------------------------

      A V E R A G E S   O V E R      50 S T E P S

 NSTEP =    50000   TIME(PS) =     300.000  TEMP(K) =   300.06  PRESS =     0.0
 Etot   =    -83206.3573  EKtot   =     20120.5655  EPtot      =   -103326.9228
 BOND   =       503.3101  ANGLE   =      1249.9891  DIHED      =      2078.5595
 1-4 NB =       604.1853  1-4 EEL =      5210.1441  VDWAALS    =     12858.8385
 EELEC  =   -125850.4405  EHBOND  =         0.0000  RESTRAINT  =        18.4910
 EAMBER (non-restraint)  =   -103345.4138
 EKCMT  =         0.0000  VIRIAL  =         0.0000  VOLUME     =    331639.7224
                                                    Density    =         1.0101
 DV/DL  =        11.2580
 ------------------------------------------------------------------------------

      R M S  F L U C T U A T I O N S

 NSTEP =    50000   TIME(PS) =     300.000  TEMP(K) =     1.78  PRESS =     0.0
 Etot   =       203.1995  EKtot   =       119.6405  EPtot      =       160.8839
 BOND   =        20.9647  ANGLE   =        29.0716  DIHED      =        16.4387
 1-4 NB =        11.7242  1-4 EEL =        27.0757  VDWAALS    =       146.0363
 EELEC  =       259.4845  EHBOND  =         0.0000  RESTRAINT  =         2.7693
 EAMBER (non-restraint)  =       158.1146
 EKCMT  =         0.0000  VIRIAL  =         0.0000  VOLUME     =       782.5270
                                                    Density    =         0.0024
 DV/DL  =         1.6043
 ------------------------------------------------------------------------------

      A V E R A G E S   O V E R      50 S T E P S

 NSTEP =    50000   TIME(PS) =     300.000  TEMP(K) =   300.06  PRESS =     0.0
 Etot   =    -83220.4734  EKtot   =     20106.4495  EPtot      =   -103326.9228
 BOND   =       503.3101  ANGLE   =      1249.9891  DIHED      =      2078.5595
 1-4 NB =       604.1853  1-4 EEL =      5210.1441  VDWAALS    =     12858.8385
 EELEC  =   -125850.4405  EHBOND  =         0.0000  RESTRAINT  =        18.4910
 EAMBER (non-restraint)  =   -103345.4138
 EKCMT  =         0.0000  VIRIAL  =         0.0000  VOLUME     =    331639.7224
                                                    Density    =         1.0094
 DV/DL  =        11.2580
 ------------------------------------------------------------------------------

      R M S  F L U C T U A T I O N S

 NSTEP =    50000   TIME(PS) =     300.000  TEMP(K) =     1.78  PRESS =     0.0
 Etot   =       203.5318  EKtot   =       119.2657  EPtot      =       160.8839
 BOND   =        20.9647  ANGLE   =        29.0716  DIHED      =        16.4387
 1-4 NB =        11.7242  1-4 EEL =        27.0757  VDWAALS    =       146.0363
 EELEC  =       259.4845  EHBOND  =         0.0000  RESTRAINT  =         2.7693
 EAMBER (non-restraint)  =       158.1146
 EKCMT  =         0.0000  VIRIAL  =         0.0000  VOLUME     =       782.5270
                                                    Density    =         0.0024
 DV/DL  =         1.6043
 ------------------------------------------------------------------------------

      DV/DL, AVERAGES OVER      50 STEPS

 NSTEP =    50000   TIME(PS) =     300.000  TEMP(K) =     1.78  PRESS =     0.0
 Etot   =         0.0000  EKtot   =         0.0000  EPtot      =         0.0000
 BOND   =         0.0000  ANGLE   =         0.0000  DIHED      =         0.0000
 1-4 NB =         0.0000  1-4 EEL =         0.0000  VDWAALS    =         6.3526
 EELEC  =         1.8590  EHBOND  =         0.0000  RESTRAINT  =         0.0000
 EKCMT  =         0.0000  VIRIAL  =         0.0000  VOLUME     =         0.0000
                                                    Density    =         0.0000
 ------------------------------------------------------------------------------
