-------------------------------------------------------
          Amber 20 PMEMD                              2020
          -------------------------------------------------------

  [-O]verwriting output

File Assignments:

 Here is the input file:

NPT prod
 &cntrl
   imin = 0, nstlim = 50000, irest = 1, ntx = 5, dt = 0.002,

   ntt = 3, temp0 = 300.0, tempi = 300.0, tautp = 1.0, gamma_ln = 2.0,
   ntp = 1, barostat = 2, pres0 = 1.0, taup = 1.0,

   ntb = 2,
   ntc = 2, ntf = 1,
   cut = 10,
   ioutfm = 1, iwrap = 1,
   ntwe = 1000, ntwx = 0, ntpr = 1000, ntwr = 5000,

   ntr = 0,

   icfe = 1, ifsc = 1, clambda = 0.43738, gti_lam_sch = 1, scalpha = 0.2, scbet
   timask1 = ':1', timask2 = ':2',
   scmask1 = ':1@C29,H62,H59,H58,H57,H56,H55,H54,H53,H52,H51,H50,H49,H48,H47,H4

   nmropt = 0,
 /
 &wt type='DUMPFREQ', istep1 = 1000
 /
 &wt type='END'
 /
LISTIN=POUT
LISTOUT=POUT
DISANG=../k.RST
DUMPAVE = rstr_npt3.dat

Note: ig = -1. Setting random seed to   150199 based on wallclock time in
      microseconds.

--------------------------------------------------------------------------------
   1.  RESOURCE   USE:
--------------------------------------------------------------------------------

 getting box info from netcdf restart file
 NATOM  =   17464 NTYPES =      31 NBONH =   15011 MBONA  =    2503
 NTHETH =    5537 MTHETA =    3396 NPHIH =   11178 MPHIA  =   10632
 NHPARM =       0 NPARM  =       0 NNB   =   43744 NRES   =    4497
 NBONA  =    2503 NTHETA =    3396 NPHIA =   10632 NUMBND =      93
 NUMANG =     208 NPTRA  =     215 NATYP =      53 NPHB   =       1
 IFBOX  =       1 NMXRS  =      62 IFCAP =       0 NEXTRA =       0
 NCOPY  =       0

     BOX TYPE: RECTILINEAR

--------------------------------------------------------------------------------
   2.  CONTROL  DATA  FOR  THE  RUN
--------------------------------------------------------------------------------

L0

General flags:
     imin    =       0, nmropt  =       0

Nature and format of input:
     ntx     =       5, irest   =       1, ntrx    =       1

Nature and format of output:
     ntxo    =       2, ntpr    =    1000, ntrx    =       1, ntwr    =    5000
     iwrap   =       1, ntwx    =       0, ntwv    =       0, ntwe    =    1000
     ioutfm  =       1, ntwprt  =       0, idecomp =       0, rbornstat=      0

Potential function:
     ntf     =       1, ntb     =       2, igb     =       0, nsnb    =      25
     ipol    =       0, gbsa    =       0, iesp    =       0
     dielc   =   1.00000, cut     =  10.00000, intdiel =   1.00000

Frozen or restrained atoms:
     ibelly  =       0, ntr     =       0

Molecular dynamics:
     nstlim  =     50000, nscm    =      1000, nrespa  =         1
     t       =   0.00000, dt      =   0.00200, vlimit  =  -1.00000

Langevin dynamics temperature regulation:
     ig      =  150199
     temp0   = 300.00000, tempi   = 300.00000, gamma_ln=   2.00000

Pressure regulation:
     ntp     =       1
     pres0   =   1.00000, comp    =  44.60000, taup    =   1.00000
     Monte-Carlo Barostat:
     mcbarint  =     100

SHAKE:
     ntc     =       2, jfastw  =       0
     tol     =   0.00001

Free energy options:
     icfe    =       1, ifsc    =       1, klambda =       1
     clambda =  0.4374, scalpha =  0.2000, scbeta  = 50.0000
     sceeorder =       2
     dynlmb =  0.0000 logdvdl =       0

Ewald parameters:
     verbose =       0, ew_type =       0, nbflag  =       1, use_pme =       1
     vdwmeth =       1, eedmeth =       1, netfrc  =       1
     Box X =   59.571   Box Y =   51.436   Box Z =   55.483
     Alpha =   90.000   Beta  =   90.000   Gamma =   90.000
     NFFT1 =   64       NFFT2 =   56       NFFT3 =   56
     Cutoff=   10.000   Tol   =0.100E-04
     Ewald Coefficient =  0.27511
     Interpolation order =    4
     TI Mask 1 :1; matches     62 atoms
     TI Mask 2 :2; matches     61 atoms
     TI region 1:   17403 atoms
     TI region 2:   17402 atoms
     SC Mask 1 :1@C29,H62,H59,H58,H57,H56,H55,H54,H53,H52,H51,H50,H49,H48,H47,H46,H41,H40,H39,H38,H37,H36,H35,H34,H33,H32,C27,O26,C25,O24,C23,O22,C21,C20,C19,C18,C17,C7,C6,C5,C4,N3; matches     42 atoms
     SC Mask 2 :2@H46,C5,C6,C7,O8,C9,C10,C11,C12,C13,C14,O15,C16,C24,C25,N26,C27,C28,H33,H34,H35,H36,H37,H38,H39,H40,H41,H42,H43,H44,H45,H49,H50,H51,H52,H53,H54,H55,H56,H57,H61; matches     41 atoms

--------------------------------------------------------------------------------
   3.  ATOMIC COORDINATES AND VELOCITIES
--------------------------------------------------------------------------------

L0
 begin time read from input coords =   194.000 ps

     Molecule     1 is partially softcore
     Molecule     2 is partially softcore
 Number of triangulated 3-point waters found:     4189
   Removing shake constraints from C2    L0    1 -- H33   L0    1
   Removing shake constraints from C2    L0    1 -- H32   L0    1
   Removing shake constraints from C17   L1    2 -- H46   L1    2
 Number of shake restraints removed in TI region  1 :        2
 Number of shake restraints removed in TI region  2 :        1

     Sum of charges for TI region  1 =  -0.00001916
     Skip neutralizing charges...

     Sum of charges for TI region  2 =  -0.00002514
     Skip neutralizing charges...

--------------------------------------------------------------------------------
   4.  RESULTS
 NSTEP =     1000   TIME(PS) =     196.000  TEMP(K) =   299.25  PRESS =     0.0
 Etot   =    -38605.7552  EKtot   =     11069.8244  EPtot      =    -49675.5795
 BOND   =       949.6002  ANGLE   =      2434.7083  DIHED      =      3841.7600
 1-4 NB =      1115.5893  1-4 EEL =     10546.7647  VDWAALS    =      2850.3120
 EELEC  =    -71414.3141  EHBOND  =         0.0000  RESTRAINT  =         0.0000
 EKCMT  =         0.0000  VIRIAL  =         0.0000  VOLUME     =    169948.8591
                                                    Density    =         1.0756
 DV/DL  =       -28.1988
 ------------------------------------------------------------------------------

      A V E R A G E S   O V E R      50 S T E P S

 NSTEP =    50000   TIME(PS) =     294.000  TEMP(K) =   300.01  PRESS =     0.0
 Etot   =    -38590.1928  EKtot   =     11097.9490  EPtot      =    -49688.1418
 BOND   =       929.6239  ANGLE   =      2454.4237  DIHED      =      3809.9754
 1-4 NB =      1107.8179  1-4 EEL =     10553.6311  VDWAALS    =      2972.2960
 EELEC  =    -71515.9098  EHBOND  =         0.0000  RESTRAINT  =         0.0000
 EKCMT  =         0.0000  VIRIAL  =         0.0000  VOLUME     =    169373.9538
                                                    Density    =         1.0793
 DV/DL  =       -49.0585
 ------------------------------------------------------------------------------

      R M S  F L U C T U A T I O N S

 NSTEP =    50000   TIME(PS) =     294.000  TEMP(K) =     2.36  PRESS =     0.0
 Etot   =       137.9008  EKtot   =        87.3116  EPtot      =       111.7360
 BOND   =        24.9584  ANGLE   =        39.4139  DIHED      =        23.9661
 1-4 NB =        13.3609  1-4 EEL =        35.2455  VDWAALS    =        87.4696
 EELEC  =       133.6064  EHBOND  =         0.0000  RESTRAINT  =         0.0000
 EKCMT  =         0.0000  VIRIAL  =         0.0000  VOLUME     =       427.6943
                                                    Density    =         0.0027
 DV/DL  =        20.6089
 ------------------------------------------------------------------------------

      A V E R A G E S   O V E R      50 S T E P S

 NSTEP =    50000   TIME(PS) =     294.000  TEMP(K) =   300.03  PRESS =     0.0
 Etot   =    -38590.6257  EKtot   =     11097.5160  EPtot      =    -49688.1418
 BOND   =       929.6239  ANGLE   =      2454.4237  DIHED      =      3809.9754
 1-4 NB =      1107.8179  1-4 EEL =     10553.6311  VDWAALS    =      2972.2960
 EELEC  =    -71515.9098  EHBOND  =         0.0000  RESTRAINT  =         0.0000
 EKCMT  =         0.0000  VIRIAL  =         0.0000  VOLUME     =    169373.9538
                                                    Density    =         1.0792
 DV/DL  =       -49.0585
 ------------------------------------------------------------------------------

      R M S  F L U C T U A T I O N S

 NSTEP =    50000   TIME(PS) =     294.000  TEMP(K) =     2.34  PRESS =     0.0
 Etot   =       137.2016  EKtot   =        86.6180  EPtot      =       111.7360
 BOND   =        24.9584  ANGLE   =        39.4139  DIHED      =        23.9661
 1-4 NB =        13.3609  1-4 EEL =        35.2455  VDWAALS    =        87.4696
 EELEC  =       133.6064  EHBOND  =         0.0000  RESTRAINT  =         0.0000
 EKCMT  =         0.0000  VIRIAL  =         0.0000  VOLUME     =       427.6943
                                                    Density    =         0.0027
 DV/DL  =        20.6089
 ------------------------------------------------------------------------------

      DV/DL, AVERAGES OVER      50 STEPS

 NSTEP =    50000   TIME(PS) =     294.000  TEMP(K) =     2.34  PRESS =     0.0
 Etot   =         0.0000  EKtot   =         0.0000  EPtot      =         0.0000
 BOND   =         1.1629  ANGLE   =         0.1830  DIHED      =         0.0000
 1-4 NB =         0.5408  1-4 EEL =       106.8866  VDWAALS    =        10.6735
 EELEC  =      -166.9576  EHBOND  =         0.0000  RESTRAINT  =         0.0000
 EKCMT  =         0.0000  VIRIAL  =         0.0000  VOLUME     =         0.0000
                                                    Density    =         0.0000
 ------------------------------------------------------------------------------
