-------------------------------------------------------
          Amber 20 PMEMD                              2020
          -------------------------------------------------------

  [-O]verwriting output

File Assignments:

 Here is the input file:

&cntrl
 ig=-1,
 iwrap = 1,
 imin = 0,
 nstlim = 50000, dt = 0.002,
 irest = 1,
 ioutfm = 1,
 ntxo = 2,
 ntx = 5,
 ntb = 2,
 ntp = 1, barostat = 2, pres0 = 1.0,
 taup = 1.0,
 ntt = 3, gamma_ln = 1.0, tempi = 300.0, temp0 = 300.0,
 ntr = 1,
 ntc = 2, ntf = 1,
 cut = 10.0,
 ntpr=1000, ntwx=0, ntwr=1000,

 restraintmask='@CA|:1,2&!@H=',
 restraint_wt=20.0,

 icfe = 1, ifsc = 1, clambda = 0.5, gti_lam_sch = 1, scalpha = 0.2, scbeta = 50
 timask1 = ':1', timask2 = ':2',
 scmask1 = ':1@C15,H55,H54,H53,H52,H51,H50,H49,H48,H45,H44,H43,C26,C25,O24,C23,

 nmropt = 0,
 /
 &wt type='DUMPFREQ', istep1 = 1000
 /
 &wt type='END'
 /
LISTIN=POUT
LISTOUT=POUT
DISANG=../k.RST
DUMPAVE = rstr_npt2.dat

Note: ig = -1. Setting random seed to     9600 based on wallclock time in
      microseconds.

--------------------------------------------------------------------------------
   1.  RESOURCE   USE:
--------------------------------------------------------------------------------

 getting box info from netcdf restart file
 NATOM  =   30307 NTYPES =      27 NBONH =   27584 MBONA  =    2772
 NTHETH =    6117 MTHETA =    3759 NPHIH =   12378 MPHIA  =   11843
 NHPARM =       0 NPARM  =       0 NNB   =   63025 NRES   =    8643
 NBONA  =    2772 NTHETA =    3759 NPHIA =   11843 NUMBND =      83
 NUMANG =     185 NPTRA  =     215 NATYP =      48 NPHB   =       1
 IFBOX  =       1 NMXRS  =      59 IFCAP =       0 NEXTRA =       0
 NCOPY  =       0

     BOX TYPE: RECTILINEAR

--------------------------------------------------------------------------------
   2.  CONTROL  DATA  FOR  THE  RUN
--------------------------------------------------------------------------------

L0

General flags:
     imin    =       0, nmropt  =       0

Nature and format of input:
     ntx     =       5, irest   =       1, ntrx    =       1

Nature and format of output:
     ntxo    =       2, ntpr    =    1000, ntrx    =       1, ntwr    =    1000
     iwrap   =       1, ntwx    =       0, ntwv    =       0, ntwe    =       0
     ioutfm  =       1, ntwprt  =       0, idecomp =       0, rbornstat=      0

Potential function:
     ntf     =       1, ntb     =       2, igb     =       0, nsnb    =      25
     ipol    =       0, gbsa    =       0, iesp    =       0
     dielc   =   1.00000, cut     =  10.00000, intdiel =   1.00000

Frozen or restrained atoms:
     ibelly  =       0, ntr     =       1
     restraint_wt =  20.00000

Molecular dynamics:
     nstlim  =     50000, nscm    =         0, nrespa  =         1
     t       =   0.00000, dt      =   0.00200, vlimit  =  -1.00000

Langevin dynamics temperature regulation:
     ig      =    9600
     temp0   = 300.00000, tempi   = 300.00000, gamma_ln=   1.00000

Pressure regulation:
     ntp     =       1
     pres0   =   1.00000, comp    =  44.60000, taup    =   1.00000
     Monte-Carlo Barostat:
     mcbarint  =     100

SHAKE:
     ntc     =       2, jfastw  =       0
     tol     =   0.00001

Free energy options:
     icfe    =       1, ifsc    =       1, klambda =       1
     clambda =  0.5000, scalpha =  0.2000, scbeta  = 50.0000
     sceeorder =       2
     dynlmb =  0.0000 logdvdl =       0

Ewald parameters:
     verbose =       0, ew_type =       0, nbflag  =       1, use_pme =       1
     vdwmeth =       1, eedmeth =       1, netfrc  =       1
     Box X =   77.401   Box Y =   73.797   Box Z =   55.813
     Alpha =   90.000   Beta  =   90.000   Gamma =   90.000
     NFFT1 =   80       NFFT2 =   80       NFFT3 =   56
     Cutoff=   10.000   Tol   =0.100E-04
     Ewald Coefficient =  0.27511
     Interpolation order =    4

    LOADING THE CONSTRAINED ATOMS AS GROUPS

   5.  REFERENCE ATOM COORDINATES

  L0
     Mask @CA|:1,2&!@H=; matches   393 atoms
     TI Mask 1 :1; matches     59 atoms
     TI Mask 2 :2; matches     55 atoms
     TI region 1:   30252 atoms
     TI region 2:   30248 atoms
     SC Mask 1 :1@C15,H55,H54,H53,H52,H51,H50,H49,H48,H45,H44,H43,C26,C25,O24,C23,C22; matches     17 atoms
     SC Mask 2 :2@H54,C22,C23,O24,C25,C26,H45,H46,H47,H48,H49,H50,H51; matches     13 atoms

--------------------------------------------------------------------------------
   3.  ATOMIC COORDINATES AND VELOCITIES
--------------------------------------------------------------------------------

L0
 begin time read from input coords =    70.000 ps

     Molecule     1 is partially softcore
     Molecule     2 is partially softcore
 Number of triangulated 3-point waters found:     8294
   Removing shake constraints from C29   L1    2 -- H54   L1    2
 Number of shake restraints removed in TI region  1 :        0
 Number of shake restraints removed in TI region  2 :        1

     Sum of charges for TI region  1 =  -1.00001118
     Skip neutralizing charges...

     Sum of charges for TI region  2 =  -0.99997918
     Skip neutralizing charges...

--------------------------------------------------------------------------------
   4.  RESULTS
 NSTEP =     1000   TIME(PS) =      72.000  TEMP(K) =   299.59  PRESS =     0.0
 Etot   =    -69893.3938  EKtot   =     18811.8853  EPtot      =    -88705.2791
 BOND   =      1028.9581  ANGLE   =      2736.7079  DIHED      =      4297.4718
 1-4 NB =      1218.6502  1-4 EEL =     12268.7501  VDWAALS    =      8076.9118
 EELEC  =   -118508.9287  EHBOND  =         0.0000  RESTRAINT  =       176.1997
 EAMBER (non-restraint)  =    -88881.4788
 EKCMT  =         0.0000  VIRIAL  =         0.0000  VOLUME     =    318387.4102
                                                    Density    =         0.9803
 DV/DL  =        -3.9021
 ------------------------------------------------------------------------------

      A V E R A G E S   O V E R      50 S T E P S

 NSTEP =    50000   TIME(PS) =     170.000  TEMP(K) =   300.45  PRESS =     0.0
 Etot   =    -70461.6184  EKtot   =     18866.0398  EPtot      =    -89327.6582
 BOND   =      1009.0113  ANGLE   =      2701.9783  DIHED      =      4317.7236
 1-4 NB =      1252.3810  1-4 EEL =     12305.8076  VDWAALS    =      8430.4821
 EELEC  =   -119532.1399  EHBOND  =         0.0000  RESTRAINT  =       187.0978
 EAMBER (non-restraint)  =    -89514.7560
 EKCMT  =         0.0000  VIRIAL  =         0.0000  VOLUME     =    303259.9522
                                                    Density    =         1.0296
 DV/DL  =        -2.7999
 ------------------------------------------------------------------------------

      R M S  F L U C T U A T I O N S

 NSTEP =    50000   TIME(PS) =     170.000  TEMP(K) =     1.60  PRESS =     0.0
 Etot   =       296.8464  EKtot   =       100.1997  EPtot      =       305.4870
 BOND   =        28.1815  ANGLE   =        42.1669  DIHED      =        23.5958
 1-4 NB =        15.6685  1-4 EEL =        31.8134  VDWAALS    =       158.3632
 EELEC  =       423.1531  EHBOND  =         0.0000  RESTRAINT  =         8.5376
 EAMBER (non-restraint)  =       296.9493
 EKCMT  =         0.0000  VIRIAL  =         0.0000  VOLUME     =      5337.1572
                                                    Density    =         0.0177
 DV/DL  =        14.4792
 ------------------------------------------------------------------------------

      A V E R A G E S   O V E R      50 S T E P S

 NSTEP =    50000   TIME(PS) =     170.000  TEMP(K) =   300.47  PRESS =     0.0
 Etot   =    -70463.0031  EKtot   =     18864.6551  EPtot      =    -89327.6582
 BOND   =      1009.0113  ANGLE   =      2701.9783  DIHED      =      4317.7236
 1-4 NB =      1252.3810  1-4 EEL =     12305.8076  VDWAALS    =      8430.4821
 EELEC  =   -119532.1399  EHBOND  =         0.0000  RESTRAINT  =       187.0978
 EAMBER (non-restraint)  =    -89514.7560
 EKCMT  =         0.0000  VIRIAL  =         0.0000  VOLUME     =    303259.9522
                                                    Density    =         1.0295
 DV/DL  =        -2.7999
 ------------------------------------------------------------------------------

      R M S  F L U C T U A T I O N S

 NSTEP =    50000   TIME(PS) =     170.000  TEMP(K) =     1.59  PRESS =     0.0
 Etot   =       296.7678  EKtot   =        99.6129  EPtot      =       305.4870
 BOND   =        28.1815  ANGLE   =        42.1669  DIHED      =        23.5958
 1-4 NB =        15.6685  1-4 EEL =        31.8134  VDWAALS    =       158.3632
 EELEC  =       423.1531  EHBOND  =         0.0000  RESTRAINT  =         8.5376
 EAMBER (non-restraint)  =       296.9493
 EKCMT  =         0.0000  VIRIAL  =         0.0000  VOLUME     =      5337.1572
                                                    Density    =         0.0177
 DV/DL  =        14.4792
 ------------------------------------------------------------------------------

      DV/DL, AVERAGES OVER      50 STEPS

 NSTEP =    50000   TIME(PS) =     170.000  TEMP(K) =     1.59  PRESS =     0.0
 Etot   =         0.0000  EKtot   =         0.0000  EPtot      =         0.0000
 BOND   =        -0.0452  ANGLE   =         0.1463  DIHED      =         0.0000
 1-4 NB =        -1.1923  1-4 EEL =        31.8938  VDWAALS    =         0.0639
 EELEC  =       -24.0754  EHBOND  =         0.0000  RESTRAINT  =         0.0000
 EKCMT  =         0.0000  VIRIAL  =         0.0000  VOLUME     =         0.0000
                                                    Density    =         0.0000
 ------------------------------------------------------------------------------
