-------------------------------------------------------
          Amber 20 PMEMD                              2020
          -------------------------------------------------------

  [-O]verwriting output

File Assignments:

 Here is the input file:

NPT prod
 &cntrl
   imin = 0, nstlim = 50000, irest = 1, ntx = 5, dt = 0.002,

   ntt = 3, temp0 = 300.0, tempi = 300.0, tautp = 1.0, gamma_ln = 2.0,
   ntp = 1, barostat = 2, pres0 = 1.0, taup = 1.0,

   ntb = 2,
   ntc = 2, ntf = 1,
   cut = 10,
   ioutfm = 1, iwrap = 1,
   ntwe = 1000, ntwx = 0, ntpr = 1000, ntwr = 5000,

   ntr = 0,

   icfe = 1, ifsc = 1, clambda = 0.5, gti_lam_sch = 1, scalpha = 0.2, scbeta =
   timask1 = ':1', timask2 = ':2',
   scmask1 = ':1@C15,H55,H54,H53,H52,H51,H50,H49,H48,H45,H44,H43,C26,C25,O24,C2

   nmropt = 0,
 /
 &wt type='DUMPFREQ', istep1 = 1000
 /
 &wt type='END'
 /
LISTIN=POUT
LISTOUT=POUT
DISANG=../k.RST
DUMPAVE = rstr_npt3.dat

Note: ig = -1. Setting random seed to   298536 based on wallclock time in
      microseconds.

--------------------------------------------------------------------------------
   1.  RESOURCE   USE:
--------------------------------------------------------------------------------

 getting box info from netcdf restart file
 NATOM  =   30307 NTYPES =      27 NBONH =   27584 MBONA  =    2772
 NTHETH =    6117 MTHETA =    3759 NPHIH =   12378 MPHIA  =   11843
 NHPARM =       0 NPARM  =       0 NNB   =   63025 NRES   =    8643
 NBONA  =    2772 NTHETA =    3759 NPHIA =   11843 NUMBND =      83
 NUMANG =     185 NPTRA  =     215 NATYP =      48 NPHB   =       1
 IFBOX  =       1 NMXRS  =      59 IFCAP =       0 NEXTRA =       0
 NCOPY  =       0

     BOX TYPE: RECTILINEAR

--------------------------------------------------------------------------------
   2.  CONTROL  DATA  FOR  THE  RUN
--------------------------------------------------------------------------------

L0

General flags:
     imin    =       0, nmropt  =       0

Nature and format of input:
     ntx     =       5, irest   =       1, ntrx    =       1

Nature and format of output:
     ntxo    =       2, ntpr    =    1000, ntrx    =       1, ntwr    =    5000
     iwrap   =       1, ntwx    =       0, ntwv    =       0, ntwe    =    1000
     ioutfm  =       1, ntwprt  =       0, idecomp =       0, rbornstat=      0

Potential function:
     ntf     =       1, ntb     =       2, igb     =       0, nsnb    =      25
     ipol    =       0, gbsa    =       0, iesp    =       0
     dielc   =   1.00000, cut     =  10.00000, intdiel =   1.00000

Frozen or restrained atoms:
     ibelly  =       0, ntr     =       0

Molecular dynamics:
     nstlim  =     50000, nscm    =      1000, nrespa  =         1
     t       =   0.00000, dt      =   0.00200, vlimit  =  -1.00000

Langevin dynamics temperature regulation:
     ig      =  298536
     temp0   = 300.00000, tempi   = 300.00000, gamma_ln=   2.00000

Pressure regulation:
     ntp     =       1
     pres0   =   1.00000, comp    =  44.60000, taup    =   1.00000
     Monte-Carlo Barostat:
     mcbarint  =     100

SHAKE:
     ntc     =       2, jfastw  =       0
     tol     =   0.00001

Free energy options:
     icfe    =       1, ifsc    =       1, klambda =       1
     clambda =  0.5000, scalpha =  0.2000, scbeta  = 50.0000
     sceeorder =       2
     dynlmb =  0.0000 logdvdl =       0

Ewald parameters:
     verbose =       0, ew_type =       0, nbflag  =       1, use_pme =       1
     vdwmeth =       1, eedmeth =       1, netfrc  =       1
     Box X =   75.864   Box Y =   72.331   Box Z =   54.705
     Alpha =   90.000   Beta  =   90.000   Gamma =   90.000
     NFFT1 =   80       NFFT2 =   80       NFFT3 =   56
     Cutoff=   10.000   Tol   =0.100E-04
     Ewald Coefficient =  0.27511
     Interpolation order =    4
     TI Mask 1 :1; matches     59 atoms
     TI Mask 2 :2; matches     55 atoms
     TI region 1:   30252 atoms
     TI region 2:   30248 atoms
     SC Mask 1 :1@C15,H55,H54,H53,H52,H51,H50,H49,H48,H45,H44,H43,C26,C25,O24,C23,C22; matches     17 atoms
     SC Mask 2 :2@H54,C22,C23,O24,C25,C26,H45,H46,H47,H48,H49,H50,H51; matches     13 atoms

--------------------------------------------------------------------------------
   3.  ATOMIC COORDINATES AND VELOCITIES
--------------------------------------------------------------------------------

L0
 begin time read from input coords =   170.000 ps

     Molecule     1 is partially softcore
     Molecule     2 is partially softcore
 Number of triangulated 3-point waters found:     8294
   Removing shake constraints from C29   L1    2 -- H54   L1    2
 Number of shake restraints removed in TI region  1 :        0
 Number of shake restraints removed in TI region  2 :        1

     Sum of charges for TI region  1 =  -1.00001118
     Skip neutralizing charges...

     Sum of charges for TI region  2 =  -0.99997918
     Skip neutralizing charges...

--------------------------------------------------------------------------------
   4.  RESULTS
 NSTEP =     1000   TIME(PS) =     172.000  TEMP(K) =   302.92  PRESS =     0.0
 Etot   =    -70559.8115  EKtot   =     19021.3277  EPtot      =    -89581.1392
 BOND   =      1065.2317  ANGLE   =      2792.9156  DIHED      =      4263.7201
 1-4 NB =      1218.8264  1-4 EEL =     12199.0208  VDWAALS    =      8687.3883
 EELEC  =   -119808.2422  EHBOND  =         0.0000  RESTRAINT  =         0.0000
 EKCMT  =         0.0000  VIRIAL  =         0.0000  VOLUME     =    300112.8186
                                                    Density    =         1.0400
 DV/DL  =       -40.4636
 ------------------------------------------------------------------------------

      A V E R A G E S   O V E R      50 S T E P S

 NSTEP =    50000   TIME(PS) =     270.000  TEMP(K) =   300.02  PRESS =     0.0
 Etot   =    -70983.1126  EKtot   =     18838.7022  EPtot      =    -89821.8148
 BOND   =      1037.9006  ANGLE   =      2743.2837  DIHED      =      4300.7968
 1-4 NB =      1243.5989  1-4 EEL =     12276.6962  VDWAALS    =      8541.0491
 EELEC  =   -119965.1402  EHBOND  =         0.0000  RESTRAINT  =         0.0000
 EKCMT  =         0.0000  VIRIAL  =         0.0000  VOLUME     =    298825.8308
                                                    Density    =         1.0445
 DV/DL  =        -6.3143
 ------------------------------------------------------------------------------

      R M S  F L U C T U A T I O N S

 NSTEP =    50000   TIME(PS) =     270.000  TEMP(K) =     1.65  PRESS =     0.0
 Etot   =       200.7666  EKtot   =       103.7475  EPtot      =       153.1437
 BOND   =        25.9998  ANGLE   =        43.4565  DIHED      =        23.0039
 1-4 NB =        14.6468  1-4 EEL =        35.6473  VDWAALS    =       151.2619
 EELEC  =       213.9039  EHBOND  =         0.0000  RESTRAINT  =         0.0000
 EKCMT  =         0.0000  VIRIAL  =         0.0000  VOLUME     =       756.2127
                                                    Density    =         0.0026
 DV/DL  =        15.3088
 ------------------------------------------------------------------------------

      A V E R A G E S   O V E R      50 S T E P S

 NSTEP =    50000   TIME(PS) =     270.000  TEMP(K) =   300.00  PRESS =     0.0
 Etot   =    -70986.2778  EKtot   =     18835.5371  EPtot      =    -89821.8148
 BOND   =      1037.9006  ANGLE   =      2743.2837  DIHED      =      4300.7968
 1-4 NB =      1243.5989  1-4 EEL =     12276.6962  VDWAALS    =      8541.0491
 EELEC  =   -119965.1402  EHBOND  =         0.0000  RESTRAINT  =         0.0000
 EKCMT  =         0.0000  VIRIAL  =         0.0000  VOLUME     =    298825.8308
                                                    Density    =         1.0444
 DV/DL  =        -6.3143
 ------------------------------------------------------------------------------

      R M S  F L U C T U A T I O N S

 NSTEP =    50000   TIME(PS) =     270.000  TEMP(K) =     1.65  PRESS =     0.0
 Etot   =       200.8506  EKtot   =       103.5035  EPtot      =       153.1437
 BOND   =        25.9998  ANGLE   =        43.4565  DIHED      =        23.0039
 1-4 NB =        14.6468  1-4 EEL =        35.6473  VDWAALS    =       151.2619
 EELEC  =       213.9039  EHBOND  =         0.0000  RESTRAINT  =         0.0000
 EKCMT  =         0.0000  VIRIAL  =         0.0000  VOLUME     =       756.2127
                                                    Density    =         0.0026
 DV/DL  =        15.3088
 ------------------------------------------------------------------------------

      DV/DL, AVERAGES OVER      50 STEPS

 NSTEP =    50000   TIME(PS) =     270.000  TEMP(K) =     1.65  PRESS =     0.0
 Etot   =         0.0000  EKtot   =         0.0000  EPtot      =         0.0000
 BOND   =         0.2993  ANGLE   =         0.2256  DIHED      =         0.0000
 1-4 NB =        -2.3545  1-4 EEL =        31.8652  VDWAALS    =        -3.0057
 EELEC  =       -21.4784  EHBOND  =         0.0000  RESTRAINT  =         0.0000
 EKCMT  =         0.0000  VIRIAL  =         0.0000  VOLUME     =         0.0000
                                                    Density    =         0.0000
 ------------------------------------------------------------------------------
