-------------------------------------------------------
          Amber 20 PMEMD                              2020
          -------------------------------------------------------

  [-O]verwriting output

File Assignments:

 Here is the input file:

&cntrl
 ig=-1,
 iwrap = 1,
 imin = 0,
 nstlim = 50000, dt = 0.002,
 irest = 1,
 ioutfm = 1,
 ntxo = 2,
 ntx = 5,
 ntb = 2,
 ntp = 1, barostat = 2, pres0 = 1.0,
 taup = 1.0,
 ntt = 3, gamma_ln = 1.0, tempi = 300.0, temp0 = 300.0,
 ntr = 1,
 ntc = 2, ntf = 1,
 cut = 10.0,
 ntpr=1000, ntwx=1000, ntwr=1000,

 restraintmask='@CA|:PA,PC,OL@C=|:MOL&!@H=',
 restraint_wt=1.0,

 icfe = 1, ifsc = 1, clambda = 0.3, gti_lam_sch = 1,
   scalpha=0.2, scbeta=50.0,
 timask1 = ':MOL', timask2 = '',
 scmask1 = ':MOL', scmask2 = '',

 nmropt = 0,
 /
 &wt type='DUMPFREQ', istep1 = 1000
 /
 &wt type='END'
 /
LISTIN=POUT
LISTOUT=POUT
DISANG=../../k.RST
DUMPAVE = rstr_npt2.dat

Note: ig = -1. Setting random seed to   854726 based on wallclock time in
      microseconds.

--------------------------------------------------------------------------------
   1.  RESOURCE   USE:
--------------------------------------------------------------------------------

 getting box info from netcdf restart file
 NATOM  =    5091 NTYPES =      10 NBONH =    5081 MBONA  =      10
 NTHETH =      17 MTHETA =      11 NPHIH =      31 MPHIA  =      13
 NHPARM =       0 NPARM  =       0 NNB   =    6845 NRES   =    1692
 NBONA  =      10 NTHETA =      11 NPHIA =      13 NUMBND =      10
 NUMANG =      11 NPTRA  =       7 NATYP =      10 NPHB   =       1
 IFBOX  =       1 NMXRS  =      18 IFCAP =       0 NEXTRA =       0
 NCOPY  =       0

     BOX TYPE: RECTILINEAR

--------------------------------------------------------------------------------
   2.  CONTROL  DATA  FOR  THE  RUN
--------------------------------------------------------------------------------

default_name

General flags:
     imin    =       0, nmropt  =       0

Nature and format of input:
     ntx     =       5, irest   =       1, ntrx    =       1

Nature and format of output:
     ntxo    =       2, ntpr    =    1000, ntrx    =       1, ntwr    =    1000
     iwrap   =       1, ntwx    =    1000, ntwv    =       0, ntwe    =       0
     ioutfm  =       1, ntwprt  =       0, idecomp =       0, rbornstat=      0

Potential function:
     ntf     =       1, ntb     =       2, igb     =       0, nsnb    =      25
     ipol    =       0, gbsa    =       0, iesp    =       0
     dielc   =   1.00000, cut     =  10.00000, intdiel =   1.00000

Frozen or restrained atoms:
     ibelly  =       0, ntr     =       1
     restraint_wt =   1.00000

Molecular dynamics:
     nstlim  =     50000, nscm    =         0, nrespa  =         1
     t       =   0.00000, dt      =   0.00200, vlimit  =  -1.00000

Langevin dynamics temperature regulation:
     ig      =  854726
     temp0   = 300.00000, tempi   = 300.00000, gamma_ln=   1.00000

Pressure regulation:
     ntp     =       1
     pres0   =   1.00000, comp    =  44.60000, taup    =   1.00000
     Monte-Carlo Barostat:
     mcbarint  =     100

SHAKE:
     ntc     =       2, jfastw  =       0
     tol     =   0.00001

Free energy options:
     icfe    =       1, ifsc    =       1, klambda =       1
     clambda =  0.3000, scalpha =  0.2000, scbeta  = 50.0000
     sceeorder =       2
     dynlmb =  0.0000 logdvdl =       0

Ewald parameters:
     verbose =       0, ew_type =       0, nbflag  =       1, use_pme =       1
     vdwmeth =       1, eedmeth =       1, netfrc  =       1
     Box X =   36.440   Box Y =   36.661   Box Z =   38.866
     Alpha =   90.000   Beta  =   90.000   Gamma =   90.000
     NFFT1 =   40       NFFT2 =   40       NFFT3 =   40
     Cutoff=   10.000   Tol   =0.100E-04
     Ewald Coefficient =  0.27511
     Interpolation order =    4

    LOADING THE CONSTRAINED ATOMS AS GROUPS

   5.  REFERENCE ATOM COORDINATES

  default_name
     Mask @CA|:PA,PC,OL@C=|:MOL&!@H=; matches    10 atoms
     TI Mask 1 :MOL; matches     18 atoms
     TI Mask 2  matches      0 atoms
     TI region 1:    5091 atoms
     TI region 2:    5073 atoms
     SC Mask 1 :MOL; matches     18 atoms

--------------------------------------------------------------------------------
   3.  ATOMIC COORDINATES AND VELOCITIES
--------------------------------------------------------------------------------

default_name
 begin time read from input coords =   100.000 ps

     Molecule     1 is completely softcore and skipped for C.O.M..
 Number of triangulated 3-point waters found:     1691
 Number of shake restraints removed in TI region  1 :        0
 Number of shake restraints removed in TI region  2 :        0

     Sum of charges for TI region  1 =  -0.00000000
     Skip neutralizing charges...

     Sum of charges for TI region  2 =   0.00000000
     Skip neutralizing charges...

--------------------------------------------------------------------------------
   4.  RESULTS
 NSTEP =     1000   TIME(PS) =     102.000  TEMP(K) =   297.93  PRESS =     0.0
 Etot   =    -13142.9195  EKtot   =      3017.0273  EPtot      =    -16159.9469
 BOND   =         0.0000  ANGLE   =         0.0000  DIHED      =        -0.0000
 1-4 NB =         0.0000  1-4 EEL =         0.0000  VDWAALS    =      2374.3287
 EELEC  =    -18537.3512  EHBOND  =         0.0000  RESTRAINT  =         3.0757
 EAMBER (non-restraint)  =    -16163.0226
 EKCMT  =         0.0000  VIRIAL  =         0.0000  VOLUME     =     51503.4604
                                                    Density    =         0.9865
 DV/DL  =        37.0020
 ------------------------------------------------------------------------------

      A V E R A G E S   O V E R      50 S T E P S

 NSTEP =    50000   TIME(PS) =     200.000  TEMP(K) =   299.63  PRESS =     0.0
 Etot   =    -13099.7210  EKtot   =      3034.2698  EPtot      =    -16133.9908
 BOND   =         0.0000  ANGLE   =         0.0000  DIHED      =         0.0000
 1-4 NB =         0.0000  1-4 EEL =         0.0000  VDWAALS    =      2407.5427
 EELEC  =    -18543.5687  EHBOND  =         0.0000  RESTRAINT  =         2.0351
 EAMBER (non-restraint)  =    -16136.0259
 EKCMT  =         0.0000  VIRIAL  =         0.0000  VOLUME     =     51674.1769
                                                    Density    =         0.9833
 DV/DL  =        36.5070
 ------------------------------------------------------------------------------

      R M S  F L U C T U A T I O N S

 NSTEP =    50000   TIME(PS) =     200.000  TEMP(K) =     4.20  PRESS =     0.0
 Etot   =        79.9351  EKtot   =        42.5579  EPtot      =        66.3803
 BOND   =         0.0000  ANGLE   =         0.0000  DIHED      =         0.0000
 1-4 NB =         0.0000  1-4 EEL =         0.0000  VDWAALS    =        69.1448
 EELEC  =       109.8467  EHBOND  =         0.0000  RESTRAINT  =         0.9379
 EAMBER (non-restraint)  =        65.4423
 EKCMT  =         0.0000  VIRIAL  =         0.0000  VOLUME     =       327.1528
                                                    Density    =         0.0062
 DV/DL  =         5.9942
 ------------------------------------------------------------------------------

      A V E R A G E S   O V E R      50 S T E P S

 NSTEP =    50000   TIME(PS) =     200.000  TEMP(K) =   299.60  PRESS =     0.0
 Etot   =    -13113.7520  EKtot   =      3020.2388  EPtot      =    -16133.9908
 BOND   =         0.0000  ANGLE   =         0.0000  DIHED      =         0.0000
 1-4 NB =         0.0000  1-4 EEL =         0.0000  VDWAALS    =      2407.5427
 EELEC  =    -18543.5687  EHBOND  =         0.0000  RESTRAINT  =         2.0351
 EAMBER (non-restraint)  =    -16136.0259
 EKCMT  =         0.0000  VIRIAL  =         0.0000  VOLUME     =     51674.1769
                                                    Density    =         0.9790
 DV/DL  =        36.5070
 ------------------------------------------------------------------------------

      R M S  F L U C T U A T I O N S

 NSTEP =    50000   TIME(PS) =     200.000  TEMP(K) =     4.24  PRESS =     0.0
 Etot   =        79.7733  EKtot   =        42.7821  EPtot      =        66.3803
 BOND   =         0.0000  ANGLE   =         0.0000  DIHED      =         0.0000
 1-4 NB =         0.0000  1-4 EEL =         0.0000  VDWAALS    =        69.1448
 EELEC  =       109.8467  EHBOND  =         0.0000  RESTRAINT  =         0.9379
 EAMBER (non-restraint)  =        65.4423
 EKCMT  =         0.0000  VIRIAL  =         0.0000  VOLUME     =       327.1528
                                                    Density    =         0.0062
 DV/DL  =         5.9942
 ------------------------------------------------------------------------------

      DV/DL, AVERAGES OVER      50 STEPS

 NSTEP =    50000   TIME(PS) =     200.000  TEMP(K) =     4.24  PRESS =     0.0
 Etot   =         0.0000  EKtot   =         0.0000  EPtot      =         0.0000
 BOND   =         0.0000  ANGLE   =         0.0000  DIHED      =         0.0000
 1-4 NB =         0.0000  1-4 EEL =         0.0000  VDWAALS    =        20.4006
 EELEC  =         9.3848  EHBOND  =         0.0000  RESTRAINT  =         0.0000
 EKCMT  =         0.0000  VIRIAL  =         0.0000  VOLUME     =         0.0000
                                                    Density    =         0.0000
 ------------------------------------------------------------------------------
