-------------------------------------------------------
          Amber 20 PMEMD                              2020
          -------------------------------------------------------

  [-O]verwriting output

File Assignments:

 Here is the input file:

NPT prod
 &cntrl
   imin = 0, nstlim = 125000, irest = 0, ntx = 1, dt = 0.002,

   ntt = 3, temp0 = 300.0, tempi = 300.0, tautp = 1.0, gamma_ln = 2.0,

   ntb = 1,
   ntc = 2, ntf = 1,
   cut = 10,
   ioutfm = 1, iwrap = 1,
   ntwe = 1000, ntwx = 2500, ntpr = 1000, ntwr = 100000,

   ntr = 0, restraintmask=':2-3,356-357@CA', restraint_wt=0.5,

   icfe = 1, ifsc = 1, clambda = 0.8, gti_lam_sch = 1,
   scalpha=0.2, scbeta=50.0,
   timask1 = ':MOL', timask2 = '',
   scmask1 = ':MOL', scmask2 = '',

!  ifmbar = 1, mbar_states = 12,
!  mbar_lambda = 0.00922, 0.04794, 0.11505, 0.20634, 0.31608, 0.43738, 0.56262,

   nmropt = 1,
 /
 &wt type='DUMPFREQ', istep1 = 1000
 /
 &wt type='END'
 /
LISTIN=POUT
LISTOUT=POUT
DISANG=../../k.RST

DUMPAVE = rstr_prod.dat

Note: ig = -1. Setting random seed to   457958 based on wallclock time in
      microseconds.

--------------------------------------------------------------------------------
   1.  RESOURCE   USE:
--------------------------------------------------------------------------------

 getting box info from netcdf restart file
 NATOM  =   33089 NTYPES =      25 NBONH =   31780 MBONA  =    1321
 NTHETH =    2979 MTHETA =    1777 NPHIH =    6059 MPHIA  =    5536
 NHPARM =       0 NPARM  =       0 NNB   =   55000 NRES   =   10325
 NBONA  =    1321 NTHETA =    1777 NPHIA =    5536 NUMBND =      75
 NUMANG =     163 NPTRA  =     195 NATYP =      44 NPHB   =       1
 IFBOX  =       1 NMXRS  =      24 IFCAP =       0 NEXTRA =       0
 NCOPY  =       0

     BOX TYPE: RECTILINEAR

--------------------------------------------------------------------------------
   2.  CONTROL  DATA  FOR  THE  RUN
--------------------------------------------------------------------------------

default_name

General flags:
     imin    =       0, nmropt  =       1

Nature and format of input:
     ntx     =       1, irest   =       0, ntrx    =       1

Nature and format of output:
     ntxo    =       2, ntpr    =    1000, ntrx    =       1, ntwr    =  100000
     iwrap   =       1, ntwx    =    2500, ntwv    =       0, ntwe    =    1000
     ioutfm  =       1, ntwprt  =       0, idecomp =       0, rbornstat=      0

Potential function:
     ntf     =       1, ntb     =       1, igb     =       0, nsnb    =      25
     ipol    =       0, gbsa    =       0, iesp    =       0
     dielc   =   1.00000, cut     =  10.00000, intdiel =   1.00000

Frozen or restrained atoms:
     ibelly  =       0, ntr     =       0

Molecular dynamics:
     nstlim  =    125000, nscm    =      1000, nrespa  =         1
     t       =   0.00000, dt      =   0.00200, vlimit  =  -1.00000

Langevin dynamics temperature regulation:
     ig      =  457958
     temp0   = 300.00000, tempi   = 300.00000, gamma_ln=   2.00000

SHAKE:
     ntc     =       2, jfastw  =       0
     tol     =   0.00001

NMR refinement options:
     iscale  =       0, noeskp  =       1, ipnlty  =       1, mxsub   =       1
     scalm   = 100.00000, pencut  =   0.10000, tausw   =   0.10000

Free energy options:
     icfe    =       1, ifsc    =       1, klambda =       1
     clambda =  0.8000, scalpha =  0.2000, scbeta  = 50.0000
     sceeorder =       2
     dynlmb =  0.0000 logdvdl =       0

Ewald parameters:
     verbose =       0, ew_type =       0, nbflag  =       1, use_pme =       1
     vdwmeth =       1, eedmeth =       1, netfrc  =       1
     Box X =   67.254   Box Y =   63.105   Box Z =   78.013
     Alpha =   90.000   Beta  =   90.000   Gamma =   90.000
     NFFT1 =   64       NFFT2 =   64       NFFT3 =   80
     Cutoff=   10.000   Tol   =0.100E-04
     Ewald Coefficient =  0.27511
     Interpolation order =    4
     TI Mask 1 :MOL; matches     18 atoms
     TI Mask 2  matches      0 atoms
     TI region 1:   33089 atoms
     TI region 2:   33071 atoms
     SC Mask 1 :MOL; matches     18 atoms

--------------------------------------------------------------------------------
   3.  ATOMIC COORDINATES AND VELOCITIES
--------------------------------------------------------------------------------

default_name
 begin time read from input coords =   250.000 ps

           Begin reading energy term weight changes/NMR restraints
 WEIGHT CHANGES:
 DUMPFREQ   1000      0    0.000000    0.000000      0      0
                         ** No weight changes given **

 RESTRAINTS:
 Requested file redirections:
  LISTIN    = POUT
  LISTOUT   = POUT
  DISANG    = ../../k.RST
  DUMPAVE   = rstr_prod.dat
 Restraints will be read from file: ../../k.RST
Here are comments from the DISANG input file:

******
 C6  (   11)-CA  ( 1581)                            NSTEP1=     0 NSTEP2=     0
R1 =  -6.056 R2 =   3.944 R3 =   3.944 R4 =  13.944 RK2 =   2.000 RK3 =    2.000
 Rcurr:    3.677  Rcurr-(R2+R3)/2:    0.266  MIN(Rcurr-R2,Rcurr-R3):    0.266
******
 C6  (   11)-CA  ( 1581)-CA  ( 1591)                NSTEP1=     0 NSTEP2=     0
R1 =  41.906 R2 = 131.906 R3 = 131.906 R4 = 221.906 RK2 =  10.000 RK3 =   10.000
 Rcurr:  129.553  Rcurr-(R2+R3)/2:    2.352  MIN(Rcurr-R2,Rcurr-R3):    2.352
******
 C6  (   11)-CA  ( 1581)-CA  ( 1591)-CA  ( 1610)    NSTEP1=     0 NSTEP2=     0
R1 =-212.693 R2 =-122.693 R3 =-122.693 R4 = -32.693 RK2 =  20.000 RK3 =   20.000
 Rcurr: -105.325  Rcurr-(R2+R3)/2:   17.368  MIN(Rcurr-R2,Rcurr-R3):   17.368
******
 C1  (    1)-C6  (   11)-CA  ( 1581)                NSTEP1=     0 NSTEP2=     0
R1 = -30.733 R2 =  59.267 R3 =  59.267 R4 = 149.267 RK2 =  10.000 RK3 =   10.000
 Rcurr:   72.481  Rcurr-(R2+R3)/2:   13.214  MIN(Rcurr-R2,Rcurr-R3):   13.214
******
 C1  (    1)-C6  (   11)-CA  ( 1581)-CA  ( 1591)    NSTEP1=     0 NSTEP2=     0
R1 = -71.599 R2 =  18.401 R3 =  18.401 R4 = 108.401 RK2 =  20.000 RK3 =   20.000
 Rcurr:   11.404  Rcurr-(R2+R3)/2:    6.997  MIN(Rcurr-R2,Rcurr-R3):    6.997
******
 C2  (    3)-C1  (    1)-C6  (   11)-CA  ( 1581)    NSTEP1=     0 NSTEP2=     0
R1 =-194.315 R2 =-104.315 R3 =-104.315 R4 = -14.315 RK2 =  20.000 RK3 =   20.000
 Rcurr: -107.439  Rcurr-(R2+R3)/2:    3.123  MIN(Rcurr-R2,Rcurr-R3):    3.123
                       Number of restraints read =     6

                  Done reading weight changes/NMR restraints

 Number of triangulated 3-point waters found:    10154
 Number of shake restraints removed in TI region  1 :        0
 Number of shake restraints removed in TI region  2 :        0

     Sum of charges for TI region  1 =  -0.00000008
     Skip neutralizing charges...

     Sum of charges for TI region  2 =  -0.00000007
     Skip neutralizing charges...

--------------------------------------------------------------------------------
   4.  RESULTS
 NSTEP =        0   TIME(PS) =       0.000  TEMP(K) =   442.13  PRESS =     0.0
 Etot   =    -73716.8577  EKtot   =     29646.8288  EPtot      =   -103363.6864
 BOND   =       515.1362  ANGLE   =      1246.0086  DIHED      =      2069.0132
 1-4 NB =       600.6727  1-4 EEL =      5187.3769  VDWAALS    =     13185.3379
 EELEC  =   -126170.1179  EHBOND  =         0.0000  RESTRAINT  =         2.8861
 EAMBER (non-restraint)  =   -103366.5725
 DV/DL  =        -6.6497
 ------------------------------------------------------------------------------

      A V E R A G E S   O V E R     125 S T E P S

 NSTEP =   125000   TIME(PS) =     250.000  TEMP(K) =   299.91  PRESS =     0.0
 Etot   =    -83248.6013  EKtot   =     20110.5108  EPtot      =   -103359.1121
 BOND   =       503.4476  ANGLE   =      1261.2728  DIHED      =      2070.8586
 1-4 NB =       603.0048  1-4 EEL =      5224.5948  VDWAALS    =     12912.0845
 EELEC  =   -125935.7702  EHBOND  =         0.0000  RESTRAINT  =         1.3950
 EAMBER (non-restraint)  =   -103360.5071
 DV/DL  =         3.5049
 ------------------------------------------------------------------------------

      R M S  F L U C T U A T I O N S

 NSTEP =   125000   TIME(PS) =     250.000  TEMP(K) =     1.66  PRESS =     0.0
 Etot   =       174.4525  EKtot   =       111.5507  EPtot      =       139.6513
 BOND   =        19.0351  ANGLE   =        28.4514  DIHED      =        15.4910
 1-4 NB =        10.6116  1-4 EEL =        27.9956  VDWAALS    =       166.4606
 EELEC  =       246.2233  EHBOND  =         0.0000  RESTRAINT  =         0.8353
 EAMBER (non-restraint)  =       138.8160
 DV/DL  =        10.5189
 ------------------------------------------------------------------------------

      A V E R A G E S   O V E R     125 S T E P S

 NSTEP =   125000   TIME(PS) =     250.000  TEMP(K) =   299.90  PRESS =     0.0
 Etot   =    -83262.8904  EKtot   =     20096.2217  EPtot      =   -103359.1121
 BOND   =       503.4476  ANGLE   =      1261.2728  DIHED      =      2070.8586
 1-4 NB =       603.0048  1-4 EEL =      5224.5948  VDWAALS    =     12912.0845
 EELEC  =   -125935.7702  EHBOND  =         0.0000  RESTRAINT  =         1.3950
 EAMBER (non-restraint)  =   -103360.5071
 DV/DL  =         3.5049
 ------------------------------------------------------------------------------

      R M S  F L U C T U A T I O N S

 NSTEP =   125000   TIME(PS) =     250.000  TEMP(K) =     1.67  PRESS =     0.0
 Etot   =       174.6205  EKtot   =       111.9923  EPtot      =       139.6513
 BOND   =        19.0351  ANGLE   =        28.4514  DIHED      =        15.4910
 1-4 NB =        10.6116  1-4 EEL =        27.9956  VDWAALS    =       166.4606
 EELEC  =       246.2233  EHBOND  =         0.0000  RESTRAINT  =         0.8353
 EAMBER (non-restraint)  =       138.8160
 DV/DL  =        10.5189
 ------------------------------------------------------------------------------

      DV/DL, AVERAGES OVER     125 STEPS

 NSTEP =   125000   TIME(PS) =     250.000  TEMP(K) =     1.67  PRESS =     0.0
 Etot   =         0.0000  EKtot   =         0.0000  EPtot      =         3.5049
 BOND   =         0.0000  ANGLE   =         0.0000  DIHED      =         0.0000
 1-4 NB =         0.0000  1-4 EEL =         0.0000  VDWAALS    =         4.1764
 EELEC  =         1.1361  EHBOND  =         0.0000  RESTRAINT  =         0.0000
 DV/DL  =         3.5049
 ------------------------------------------------------------------------------
