-------------------------------------------------------
          Amber 20 PMEMD                              2020
          -------------------------------------------------------

  [-O]verwriting output

File Assignments:

 Here is the input file:

NPT prod
 &cntrl
   imin = 0, nstlim = 125000, irest = 0, ntx = 1, dt = 0.002,

   ntt = 3, temp0 = 300.0, tempi = 300.0, tautp = 1.0, gamma_ln = 2.0,

   ntb = 1,
   ntc = 2, ntf = 1,
   cut = 10,
   ioutfm = 1, iwrap = 1,
   ntwe = 1000, ntwx = 2500, ntpr = 1000, ntwr = 100000,

  ntr = 0, restraintmask=':2-3,356-357@CA', restraint_wt=0.5,

   nmropt = 1,
 /
 &wt type='DUMPFREQ', istep1 = 1000
 /
 &wt type='END'
 /
LISTIN=POUT
LISTOUT=POUT
DISANG=../k-la-0.05.RST

DUMPAVE = rstr_0.0503

Note: ig = -1. Setting random seed to   216828 based on wallclock time in
      microseconds.

--------------------------------------------------------------------------------
   1.  RESOURCE   USE:
--------------------------------------------------------------------------------

 getting box info from netcdf restart file
 NATOM  =   33089 NTYPES =      25 NBONH =   31780 MBONA  =    1321
 NTHETH =    2979 MTHETA =    1777 NPHIH =    6059 MPHIA  =    5536
 NHPARM =       0 NPARM  =       0 NNB   =   55000 NRES   =   10325
 NBONA  =    1321 NTHETA =    1777 NPHIA =    5536 NUMBND =      75
 NUMANG =     163 NPTRA  =     195 NATYP =      44 NPHB   =       1
 IFBOX  =       1 NMXRS  =      24 IFCAP =       0 NEXTRA =       0
 NCOPY  =       0

     BOX TYPE: RECTILINEAR

--------------------------------------------------------------------------------
   2.  CONTROL  DATA  FOR  THE  RUN
--------------------------------------------------------------------------------

default_name

General flags:
     imin    =       0, nmropt  =       1

Nature and format of input:
     ntx     =       1, irest   =       0, ntrx    =       1

Nature and format of output:
     ntxo    =       2, ntpr    =    1000, ntrx    =       1, ntwr    =  100000
     iwrap   =       1, ntwx    =    2500, ntwv    =       0, ntwe    =    1000
     ioutfm  =       1, ntwprt  =       0, idecomp =       0, rbornstat=      0

Potential function:
     ntf     =       1, ntb     =       1, igb     =       0, nsnb    =      25
     ipol    =       0, gbsa    =       0, iesp    =       0
     dielc   =   1.00000, cut     =  10.00000, intdiel =   1.00000

Frozen or restrained atoms:
     ibelly  =       0, ntr     =       0

Molecular dynamics:
     nstlim  =    125000, nscm    =      1000, nrespa  =         1
     t       =   0.00000, dt      =   0.00200, vlimit  =  -1.00000

Langevin dynamics temperature regulation:
     ig      =  216828
     temp0   = 300.00000, tempi   = 300.00000, gamma_ln=   2.00000

SHAKE:
     ntc     =       2, jfastw  =       0
     tol     =   0.00001

NMR refinement options:
     iscale  =       0, noeskp  =       1, ipnlty  =       1, mxsub   =       1
     scalm   = 100.00000, pencut  =   0.10000, tausw   =   0.10000

Ewald parameters:
     verbose =       0, ew_type =       0, nbflag  =       1, use_pme =       1
     vdwmeth =       1, eedmeth =       1, netfrc  =       1
     Box X =   67.238   Box Y =   63.090   Box Z =   77.995
     Alpha =   90.000   Beta  =   90.000   Gamma =   90.000
     NFFT1 =   64       NFFT2 =   64       NFFT3 =   80
     Cutoff=   10.000   Tol   =0.100E-04
     Ewald Coefficient =  0.27511
     Interpolation order =    4

--------------------------------------------------------------------------------
   3.  ATOMIC COORDINATES AND VELOCITIES
--------------------------------------------------------------------------------

default_name
 begin time read from input coords =   250.000 ps

           Begin reading energy term weight changes/NMR restraints
 WEIGHT CHANGES:
 DUMPFREQ   1000      0    0.000000    0.000000      0      0
                         ** No weight changes given **

 RESTRAINTS:
 Requested file redirections:
  LISTIN    = POUT
  LISTOUT   = POUT
  DISANG    = ../k-la-0.05.RST
  DUMPAVE   = rstr_0.0503
 Restraints will be read from file: ../k-la-0.05.RST
Here are comments from the DISANG input file:

******
 C6  (   11)-CA  ( 1581)                            NSTEP1=     0 NSTEP2=     0
R1 =  -6.056 R2 =   3.944 R3 =   3.944 R4 =  13.944 RK2 =   0.100 RK3 =    0.100
 Rcurr:    3.953  Rcurr-(R2+R3)/2:    0.009  MIN(Rcurr-R2,Rcurr-R3):    0.009
******
 C6  (   11)-CA  ( 1581)-CA  ( 1591)                NSTEP1=     0 NSTEP2=     0
R1 =  41.906 R2 = 131.906 R3 = 131.906 R4 = 221.906 RK2 =   0.500 RK3 =    0.500
 Rcurr:  132.500  Rcurr-(R2+R3)/2:    0.594  MIN(Rcurr-R2,Rcurr-R3):    0.594
******
 C6  (   11)-CA  ( 1581)-CA  ( 1591)-CA  ( 1610)    NSTEP1=     0 NSTEP2=     0
R1 =-212.693 R2 =-122.693 R3 =-122.693 R4 = -32.693 RK2 =   1.000 RK3 =    1.000
 Rcurr: -113.403  Rcurr-(R2+R3)/2:    9.289  MIN(Rcurr-R2,Rcurr-R3):    9.289
******
 C1  (    1)-C6  (   11)-CA  ( 1581)                NSTEP1=     0 NSTEP2=     0
R1 = -30.733 R2 =  59.267 R3 =  59.267 R4 = 149.267 RK2 =   0.500 RK3 =    0.500
 Rcurr:   82.863  Rcurr-(R2+R3)/2:   23.597  MIN(Rcurr-R2,Rcurr-R3):   23.597
******
 C1  (    1)-C6  (   11)-CA  ( 1581)-CA  ( 1591)    NSTEP1=     0 NSTEP2=     0
R1 = -71.599 R2 =  18.401 R3 =  18.401 R4 = 108.401 RK2 =   1.000 RK3 =    1.000
 Rcurr:    9.308  Rcurr-(R2+R3)/2:    9.093  MIN(Rcurr-R2,Rcurr-R3):    9.093
******
 C2  (    3)-C1  (    1)-C6  (   11)-CA  ( 1581)    NSTEP1=     0 NSTEP2=     0
R1 =-194.315 R2 =-104.315 R3 =-104.315 R4 = -14.315 RK2 =   1.000 RK3 =    1.000
 Rcurr:  -96.545  Rcurr-(R2+R3)/2:    7.770  MIN(Rcurr-R2,Rcurr-R3):    7.770
                       Number of restraints read =     6

                  Done reading weight changes/NMR restraints

 Number of triangulated 3-point waters found:    10154

     Sum of charges from parm topology file =  -0.00000008
     Forcing neutrality...

--------------------------------------------------------------------------------
   4.  RESULTS
 NSTEP =        0   TIME(PS) =       0.000  TEMP(K) =   440.01  PRESS =     0.0
 Etot   =    -73824.7932  EKtot   =     29504.6593  EPtot      =   -103329.4525
 BOND   =       523.0269  ANGLE   =      1332.5775  DIHED      =      2073.6988
 1-4 NB =       605.8905  1-4 EEL =      5142.0144  VDWAALS    =     12831.1072
 EELEC  =   -125837.9225  EHBOND  =         0.0000  RESTRAINT  =         0.1547
 EAMBER (non-restraint)  =   -103329.6072
 ------------------------------------------------------------------------------

      A V E R A G E S   O V E R     125 S T E P S

 NSTEP =   125000   TIME(PS) =     250.000  TEMP(K) =   299.73  PRESS =     0.0
 Etot   =    -83315.7246  EKtot   =     20098.0647  EPtot      =   -103413.7893
 BOND   =       506.9836  ANGLE   =      1267.0175  DIHED      =      2059.9505
 1-4 NB =       607.3426  1-4 EEL =      5164.5478  VDWAALS    =     12877.0846
 EELEC  =   -125896.8229  EHBOND  =         0.0000  RESTRAINT  =         0.1070
 EAMBER (non-restraint)  =   -103413.8963
 ------------------------------------------------------------------------------

      R M S  F L U C T U A T I O N S

 NSTEP =   125000   TIME(PS) =     250.000  TEMP(K) =     1.65  PRESS =     0.0
 Etot   =       177.4836  EKtot   =       110.3441  EPtot      =       141.9386
 BOND   =        18.7569  ANGLE   =        27.5071  DIHED      =        13.8634
 1-4 NB =        10.2223  1-4 EEL =        27.7943  VDWAALS    =       144.6647
 EELEC  =       200.8692  EHBOND  =         0.0000  RESTRAINT  =         0.0755
 EAMBER (non-restraint)  =       141.8631
 ------------------------------------------------------------------------------
