-------------------------------------------------------
          Amber 20 PMEMD                              2020
          -------------------------------------------------------

  [-O]verwriting output

File Assignments:

 Here is the input file:

NPT prod
 &cntrl
   imin = 0, nstlim = 50000, irest = 1, ntx = 5, dt = 0.002,

   ntt = 3, temp0 = 300.0, tempi = 300.0, tautp = 1.0, gamma_ln = 2.0,
   ntp = 1, barostat = 2, pres0 = 1.0, taup = 1.0,

   ntb = 2,
   ntc = 2, ntf = 1,
   cut = 10,
   ioutfm = 1, iwrap = 1,
   ntwe = 1000, ntwx = 1000, ntpr = 1000, ntwr = 5000,

   ntr = 1, restraintmask='@CA', restraint_wt=0.5,

   icfe = 1, ifsc = 1, clambda = 0.9, gti_lam_sch = 1,
   scalpha=0.2, scbeta=50.0,
   timask1 = ':MOL', timask2 = '',
   scmask1 = ':MOL', scmask2 = '',

   nmropt = 1,
 /
 &wt type='DUMPFREQ', istep1 = 1000
 /
 &wt type='END'
 /
LISTIN=POUT
LISTOUT=POUT
DISANG=../../k.RST
DUMPAVE = rstr_npt3.dat

Note: ig = -1. Setting random seed to    14390 based on wallclock time in
      microseconds.

--------------------------------------------------------------------------------
   1.  RESOURCE   USE:
--------------------------------------------------------------------------------

 getting box info from netcdf restart file
 NATOM  =   33089 NTYPES =      25 NBONH =   31780 MBONA  =    1321
 NTHETH =    2979 MTHETA =    1777 NPHIH =    6059 MPHIA  =    5536
 NHPARM =       0 NPARM  =       0 NNB   =   55000 NRES   =   10325
 NBONA  =    1321 NTHETA =    1777 NPHIA =    5536 NUMBND =      75
 NUMANG =     163 NPTRA  =     195 NATYP =      44 NPHB   =       1
 IFBOX  =       1 NMXRS  =      24 IFCAP =       0 NEXTRA =       0
 NCOPY  =       0

     BOX TYPE: RECTILINEAR

--------------------------------------------------------------------------------
   2.  CONTROL  DATA  FOR  THE  RUN
--------------------------------------------------------------------------------

default_name

General flags:
     imin    =       0, nmropt  =       1

Nature and format of input:
     ntx     =       5, irest   =       1, ntrx    =       1

Nature and format of output:
     ntxo    =       2, ntpr    =    1000, ntrx    =       1, ntwr    =    5000
     iwrap   =       1, ntwx    =    1000, ntwv    =       0, ntwe    =    1000
     ioutfm  =       1, ntwprt  =       0, idecomp =       0, rbornstat=      0

Potential function:
     ntf     =       1, ntb     =       2, igb     =       0, nsnb    =      25
     ipol    =       0, gbsa    =       0, iesp    =       0
     dielc   =   1.00000, cut     =  10.00000, intdiel =   1.00000

Frozen or restrained atoms:
     ibelly  =       0, ntr     =       1
     restraint_wt =   0.50000

Molecular dynamics:
     nstlim  =     50000, nscm    =         0, nrespa  =         1
     t       =   0.00000, dt      =   0.00200, vlimit  =  -1.00000

Langevin dynamics temperature regulation:
     ig      =   14390
     temp0   = 300.00000, tempi   = 300.00000, gamma_ln=   2.00000

Pressure regulation:
     ntp     =       1
     pres0   =   1.00000, comp    =  44.60000, taup    =   1.00000
     Monte-Carlo Barostat:
     mcbarint  =     100

SHAKE:
     ntc     =       2, jfastw  =       0
     tol     =   0.00001

NMR refinement options:
     iscale  =       0, noeskp  =       1, ipnlty  =       1, mxsub   =       1
     scalm   = 100.00000, pencut  =   0.10000, tausw   =   0.10000

Free energy options:
     icfe    =       1, ifsc    =       1, klambda =       1
     clambda =  0.9000, scalpha =  0.2000, scbeta  = 50.0000
     sceeorder =       2
     dynlmb =  0.0000 logdvdl =       0

Ewald parameters:
     verbose =       0, ew_type =       0, nbflag  =       1, use_pme =       1
     vdwmeth =       1, eedmeth =       1, netfrc  =       1
     Box X =   67.210   Box Y =   63.063   Box Z =   77.962
     Alpha =   90.000   Beta  =   90.000   Gamma =   90.000
     NFFT1 =   64       NFFT2 =   64       NFFT3 =   80
     Cutoff=   10.000   Tol   =0.100E-04
     Ewald Coefficient =  0.27511
     Interpolation order =    4

    LOADING THE CONSTRAINED ATOMS AS GROUPS

   5.  REFERENCE ATOM COORDINATES

  default_name
     Mask @CA; matches   162 atoms
     TI Mask 1 :MOL; matches     18 atoms
     TI Mask 2  matches      0 atoms
     TI region 1:   33089 atoms
     TI region 2:   33071 atoms
     SC Mask 1 :MOL; matches     18 atoms

--------------------------------------------------------------------------------
   3.  ATOMIC COORDINATES AND VELOCITIES
--------------------------------------------------------------------------------

default_name
 begin time read from input coords =   200.000 ps

           Begin reading energy term weight changes/NMR restraints
 WEIGHT CHANGES:
 DUMPFREQ   1000      0    0.000000    0.000000      0      0
                         ** No weight changes given **

 RESTRAINTS:
 Requested file redirections:
  LISTIN    = POUT
  LISTOUT   = POUT
  DISANG    = ../../k.RST
  DUMPAVE   = rstr_npt3.dat
 Restraints will be read from file: ../../k.RST
Here are comments from the DISANG input file:

******
 C6  (   11)-CA  ( 1581)                            NSTEP1=     0 NSTEP2=     0
R1 =  -6.056 R2 =   3.944 R3 =   3.944 R4 =  13.944 RK2 =   2.000 RK3 =    2.000
 Rcurr:    4.026  Rcurr-(R2+R3)/2:    0.082  MIN(Rcurr-R2,Rcurr-R3):    0.082
******
 C6  (   11)-CA  ( 1581)-CA  ( 1591)                NSTEP1=     0 NSTEP2=     0
R1 =  41.906 R2 = 131.906 R3 = 131.906 R4 = 221.906 RK2 =  10.000 RK3 =   10.000
 Rcurr:  131.584  Rcurr-(R2+R3)/2:    0.322  MIN(Rcurr-R2,Rcurr-R3):    0.322
******
 C6  (   11)-CA  ( 1581)-CA  ( 1591)-CA  ( 1610)    NSTEP1=     0 NSTEP2=     0
R1 =-212.693 R2 =-122.693 R3 =-122.693 R4 = -32.693 RK2 =  20.000 RK3 =   20.000
 Rcurr: -119.053  Rcurr-(R2+R3)/2:    3.640  MIN(Rcurr-R2,Rcurr-R3):    3.640
******
 C1  (    1)-C6  (   11)-CA  ( 1581)                NSTEP1=     0 NSTEP2=     0
R1 = -30.733 R2 =  59.267 R3 =  59.267 R4 = 149.267 RK2 =  10.000 RK3 =   10.000
 Rcurr:   66.110  Rcurr-(R2+R3)/2:    6.843  MIN(Rcurr-R2,Rcurr-R3):    6.843
******
 C1  (    1)-C6  (   11)-CA  ( 1581)-CA  ( 1591)    NSTEP1=     0 NSTEP2=     0
R1 = -71.599 R2 =  18.401 R3 =  18.401 R4 = 108.401 RK2 =  20.000 RK3 =   20.000
 Rcurr:   13.222  Rcurr-(R2+R3)/2:    5.179  MIN(Rcurr-R2,Rcurr-R3):    5.179
******
 C2  (    3)-C1  (    1)-C6  (   11)-CA  ( 1581)    NSTEP1=     0 NSTEP2=     0
R1 =-194.315 R2 =-104.315 R3 =-104.315 R4 = -14.315 RK2 =  20.000 RK3 =   20.000
 Rcurr:  -91.846  Rcurr-(R2+R3)/2:   12.469  MIN(Rcurr-R2,Rcurr-R3):   12.469
                       Number of restraints read =     6

                  Done reading weight changes/NMR restraints

     Molecule     1 is completely softcore and skipped for C.O.M..
 Number of triangulated 3-point waters found:    10154
 Number of shake restraints removed in TI region  1 :        0
 Number of shake restraints removed in TI region  2 :        0

     Sum of charges for TI region  1 =  -0.00000008
     Skip neutralizing charges...

     Sum of charges for TI region  2 =  -0.00000007
     Skip neutralizing charges...

--------------------------------------------------------------------------------
   4.  RESULTS
 NSTEP =     1000   TIME(PS) =     202.000  TEMP(K) =   297.27  PRESS =     0.0
 Etot   =    -83612.3947  EKtot   =     19933.2480  EPtot      =   -103545.6428
 BOND   =       527.5202  ANGLE   =      1237.5048  DIHED      =      2097.7373
 1-4 NB =       603.1632  1-4 EEL =      5198.2233  VDWAALS    =     13123.9198
 EELEC  =   -126349.1728  EHBOND  =         0.0000  RESTRAINT  =        15.4614
 EAMBER (non-restraint)  =   -103561.1042
 EKCMT  =         0.0000  VIRIAL  =         0.0000  VOLUME     =    330438.4159
                                                    Density    =         1.0137
 DV/DL  =         1.7117
 ------------------------------------------------------------------------------

      A V E R A G E S   O V E R      50 S T E P S

 NSTEP =    50000   TIME(PS) =     300.000  TEMP(K) =   300.04  PRESS =     0.0
 Etot   =    -83184.9490  EKtot   =     20118.9133  EPtot      =   -103303.8623
 BOND   =       497.7678  ANGLE   =      1256.6597  DIHED      =      2079.3686
 1-4 NB =       603.9047  1-4 EEL =      5229.1878  VDWAALS    =     12841.8480
 EELEC  =   -125832.6607  EHBOND  =         0.0000  RESTRAINT  =        20.0619
 EAMBER (non-restraint)  =   -103323.9242
 EKCMT  =         0.0000  VIRIAL  =         0.0000  VOLUME     =    331609.7700
                                                    Density    =         1.0101
 DV/DL  =        -1.4409
 ------------------------------------------------------------------------------

      R M S  F L U C T U A T I O N S

 NSTEP =    50000   TIME(PS) =     300.000  TEMP(K) =     1.63  PRESS =     0.0
 Etot   =       222.0394  EKtot   =       109.5939  EPtot      =       164.5460
 BOND   =        18.0204  ANGLE   =        26.2658  DIHED      =        13.7634
 1-4 NB =         9.4022  1-4 EEL =        23.6894  VDWAALS    =       129.5001
 EELEC  =       236.2606  EHBOND  =         0.0000  RESTRAINT  =         2.4638
 EAMBER (non-restraint)  =       162.0822
 EKCMT  =         0.0000  VIRIAL  =         0.0000  VOLUME     =       747.5102
                                                    Density    =         0.0023
 DV/DL  =         5.3977
 ------------------------------------------------------------------------------

      A V E R A G E S   O V E R      50 S T E P S

 NSTEP =    50000   TIME(PS) =     300.000  TEMP(K) =   300.04  PRESS =     0.0
 Etot   =    -83198.6119  EKtot   =     20105.2504  EPtot      =   -103303.8623
 BOND   =       497.7678  ANGLE   =      1256.6597  DIHED      =      2079.3686
 1-4 NB =       603.9047  1-4 EEL =      5229.1878  VDWAALS    =     12841.8480
 EELEC  =   -125832.6607  EHBOND  =         0.0000  RESTRAINT  =        20.0619
 EAMBER (non-restraint)  =   -103323.9242
 EKCMT  =         0.0000  VIRIAL  =         0.0000  VOLUME     =    331609.7700
                                                    Density    =         1.0095
 DV/DL  =        -1.4409
 ------------------------------------------------------------------------------

      R M S  F L U C T U A T I O N S

 NSTEP =    50000   TIME(PS) =     300.000  TEMP(K) =     1.64  PRESS =     0.0
 Etot   =       222.0883  EKtot   =       109.6062  EPtot      =       164.5460
 BOND   =        18.0204  ANGLE   =        26.2658  DIHED      =        13.7634
 1-4 NB =         9.4022  1-4 EEL =        23.6894  VDWAALS    =       129.5001
 EELEC  =       236.2606  EHBOND  =         0.0000  RESTRAINT  =         2.4638
 EAMBER (non-restraint)  =       162.0822
 EKCMT  =         0.0000  VIRIAL  =         0.0000  VOLUME     =       747.5102
                                                    Density    =         0.0023
 DV/DL  =         5.3977
 ------------------------------------------------------------------------------

      DV/DL, AVERAGES OVER      50 STEPS

 NSTEP =    50000   TIME(PS) =     300.000  TEMP(K) =     1.64  PRESS =     0.0
 Etot   =         0.0000  EKtot   =         0.0000  EPtot      =         0.0000
 BOND   =         0.0000  ANGLE   =         0.0000  DIHED      =         0.0000
 1-4 NB =         0.0000  1-4 EEL =         0.0000  VDWAALS    =        -1.3011
 EELEC  =        -0.0121  EHBOND  =         0.0000  RESTRAINT  =         0.0000
 EKCMT  =         0.0000  VIRIAL  =         0.0000  VOLUME     =         0.0000
                                                    Density    =         0.0000
 ------------------------------------------------------------------------------
