-------------------------------------------------------
          Amber 20 PMEMD                              2020
          -------------------------------------------------------

  [-O]verwriting output

File Assignments:

 Here is the input file:

NPT prod
 &cntrl
   imin = 0, nstlim = 125000, irest = 0, ntx = 1, dt = 0.002,

   ntt = 3, temp0 = 300.0, tempi = 300.0, tautp = 1.0, gamma_ln = 2.0,

   ntb = 1,
   ntc = 2, ntf = 1,
   cut = 10,
   ioutfm = 1, iwrap = 1,
   ntwe = 1000, ntwx = 2500, ntpr = 1000, ntwr = 100000,

   ntr = 0, restraintmask=':2-3,356-357@CA', restraint_wt=0.5,

   icfe = 1, ifsc = 1, clambda = 0.3, gti_lam_sch = 1,
   scalpha=0.2, scbeta=50.0,
   timask1 = ':MOL', timask2 = '',
   scmask1 = ':MOL', scmask2 = '',

!  ifmbar = 1, mbar_states = 12,
!  mbar_lambda = 0.00922, 0.04794, 0.11505, 0.20634, 0.31608, 0.43738, 0.56262,

   nmropt = 1,
 /
 &wt type='DUMPFREQ', istep1 = 1000
 /
 &wt type='END'
 /
LISTIN=POUT
LISTOUT=POUT
DISANG=../../k.RST

DUMPAVE = rstr_prod.dat

Note: ig = -1. Setting random seed to   762339 based on wallclock time in
      microseconds.

--------------------------------------------------------------------------------
   1.  RESOURCE   USE:
--------------------------------------------------------------------------------

 getting box info from netcdf restart file
 NATOM  =   33089 NTYPES =      25 NBONH =   31780 MBONA  =    1321
 NTHETH =    2979 MTHETA =    1777 NPHIH =    6059 MPHIA  =    5536
 NHPARM =       0 NPARM  =       0 NNB   =   55000 NRES   =   10325
 NBONA  =    1321 NTHETA =    1777 NPHIA =    5536 NUMBND =      75
 NUMANG =     163 NPTRA  =     195 NATYP =      44 NPHB   =       1
 IFBOX  =       1 NMXRS  =      24 IFCAP =       0 NEXTRA =       0
 NCOPY  =       0

     BOX TYPE: RECTILINEAR

--------------------------------------------------------------------------------
   2.  CONTROL  DATA  FOR  THE  RUN
--------------------------------------------------------------------------------

default_name

General flags:
     imin    =       0, nmropt  =       1

Nature and format of input:
     ntx     =       1, irest   =       0, ntrx    =       1

Nature and format of output:
     ntxo    =       2, ntpr    =    1000, ntrx    =       1, ntwr    =  100000
     iwrap   =       1, ntwx    =    2500, ntwv    =       0, ntwe    =    1000
     ioutfm  =       1, ntwprt  =       0, idecomp =       0, rbornstat=      0

Potential function:
     ntf     =       1, ntb     =       1, igb     =       0, nsnb    =      25
     ipol    =       0, gbsa    =       0, iesp    =       0
     dielc   =   1.00000, cut     =  10.00000, intdiel =   1.00000

Frozen or restrained atoms:
     ibelly  =       0, ntr     =       0

Molecular dynamics:
     nstlim  =    125000, nscm    =      1000, nrespa  =         1
     t       =   0.00000, dt      =   0.00200, vlimit  =  -1.00000

Langevin dynamics temperature regulation:
     ig      =  762339
     temp0   = 300.00000, tempi   = 300.00000, gamma_ln=   2.00000

SHAKE:
     ntc     =       2, jfastw  =       0
     tol     =   0.00001

NMR refinement options:
     iscale  =       0, noeskp  =       1, ipnlty  =       1, mxsub   =       1
     scalm   = 100.00000, pencut  =   0.10000, tausw   =   0.10000

Free energy options:
     icfe    =       1, ifsc    =       1, klambda =       1
     clambda =  0.3000, scalpha =  0.2000, scbeta  = 50.0000
     sceeorder =       2
     dynlmb =  0.0000 logdvdl =       0

Ewald parameters:
     verbose =       0, ew_type =       0, nbflag  =       1, use_pme =       1
     vdwmeth =       1, eedmeth =       1, netfrc  =       1
     Box X =   67.248   Box Y =   63.099   Box Z =   78.006
     Alpha =   90.000   Beta  =   90.000   Gamma =   90.000
     NFFT1 =   64       NFFT2 =   64       NFFT3 =   80
     Cutoff=   10.000   Tol   =0.100E-04
     Ewald Coefficient =  0.27511
     Interpolation order =    4
     TI Mask 1 :MOL; matches     18 atoms
     TI Mask 2  matches      0 atoms
     TI region 1:   33089 atoms
     TI region 2:   33071 atoms
     SC Mask 1 :MOL; matches     18 atoms

--------------------------------------------------------------------------------
   3.  ATOMIC COORDINATES AND VELOCITIES
--------------------------------------------------------------------------------

default_name
 begin time read from input coords =   250.000 ps

           Begin reading energy term weight changes/NMR restraints
 WEIGHT CHANGES:
 DUMPFREQ   1000      0    0.000000    0.000000      0      0
                         ** No weight changes given **

 RESTRAINTS:
 Requested file redirections:
  LISTIN    = POUT
  LISTOUT   = POUT
  DISANG    = ../../k.RST
  DUMPAVE   = rstr_prod.dat
 Restraints will be read from file: ../../k.RST
Here are comments from the DISANG input file:

******
 C6  (   11)-CA  ( 1581)                            NSTEP1=     0 NSTEP2=     0
R1 =  -6.056 R2 =   3.944 R3 =   3.944 R4 =  13.944 RK2 =   2.000 RK3 =    2.000
 Rcurr:    4.396  Rcurr-(R2+R3)/2:    0.453  MIN(Rcurr-R2,Rcurr-R3):    0.453
******
 C6  (   11)-CA  ( 1581)-CA  ( 1591)                NSTEP1=     0 NSTEP2=     0
R1 =  41.906 R2 = 131.906 R3 = 131.906 R4 = 221.906 RK2 =  10.000 RK3 =   10.000
 Rcurr:  132.883  Rcurr-(R2+R3)/2:    0.978  MIN(Rcurr-R2,Rcurr-R3):    0.978
******
 C6  (   11)-CA  ( 1581)-CA  ( 1591)-CA  ( 1610)    NSTEP1=     0 NSTEP2=     0
R1 =-212.693 R2 =-122.693 R3 =-122.693 R4 = -32.693 RK2 =  20.000 RK3 =   20.000
 Rcurr: -128.234  Rcurr-(R2+R3)/2:    5.541  MIN(Rcurr-R2,Rcurr-R3):    5.541
******
 C1  (    1)-C6  (   11)-CA  ( 1581)                NSTEP1=     0 NSTEP2=     0
R1 = -30.733 R2 =  59.267 R3 =  59.267 R4 = 149.267 RK2 =  10.000 RK3 =   10.000
 Rcurr:   54.782  Rcurr-(R2+R3)/2:    4.485  MIN(Rcurr-R2,Rcurr-R3):    4.485
******
 C1  (    1)-C6  (   11)-CA  ( 1581)-CA  ( 1591)    NSTEP1=     0 NSTEP2=     0
R1 = -71.599 R2 =  18.401 R3 =  18.401 R4 = 108.401 RK2 =  20.000 RK3 =   20.000
 Rcurr:   29.207  Rcurr-(R2+R3)/2:   10.805  MIN(Rcurr-R2,Rcurr-R3):   10.805
******
 C2  (    3)-C1  (    1)-C6  (   11)-CA  ( 1581)    NSTEP1=     0 NSTEP2=     0
R1 =-194.315 R2 =-104.315 R3 =-104.315 R4 = -14.315 RK2 =  20.000 RK3 =   20.000
 Rcurr: -103.890  Rcurr-(R2+R3)/2:    0.425  MIN(Rcurr-R2,Rcurr-R3):    0.425
                       Number of restraints read =     6

                  Done reading weight changes/NMR restraints

 Number of triangulated 3-point waters found:    10154
 Number of shake restraints removed in TI region  1 :        0
 Number of shake restraints removed in TI region  2 :        0

     Sum of charges for TI region  1 =  -0.00000008
     Skip neutralizing charges...

     Sum of charges for TI region  2 =  -0.00000007
     Skip neutralizing charges...

--------------------------------------------------------------------------------
   4.  RESULTS
 NSTEP =        0   TIME(PS) =       0.000  TEMP(K) =   439.64  PRESS =     0.0
 Etot   =    -73801.5043  EKtot   =     29479.8550  EPtot      =   -103281.3593
 BOND   =       474.4427  ANGLE   =      1248.9797  DIHED      =      2095.4412
 1-4 NB =       588.8294  1-4 EEL =      5159.4330  VDWAALS    =     12811.5964
 EELEC  =   -125661.4553  EHBOND  =         0.0000  RESTRAINT  =         1.3735
 EAMBER (non-restraint)  =   -103282.7328
 DV/DL  =        37.2655
 ------------------------------------------------------------------------------

      A V E R A G E S   O V E R     125 S T E P S

 NSTEP =   125000   TIME(PS) =     250.000  TEMP(K) =   299.84  PRESS =     0.0
 Etot   =    -83274.9710  EKtot   =     20105.3994  EPtot      =   -103380.3704
 BOND   =       503.1864  ANGLE   =      1268.2582  DIHED      =      2065.3392
 1-4 NB =       606.3476  1-4 EEL =      5197.1445  VDWAALS    =     12893.8934
 EELEC  =   -125915.3912  EHBOND  =         0.0000  RESTRAINT  =         0.8516
 EAMBER (non-restraint)  =   -103381.2220
 DV/DL  =        38.6884
 ------------------------------------------------------------------------------

      R M S  F L U C T U A T I O N S

 NSTEP =   125000   TIME(PS) =     250.000  TEMP(K) =     1.64  PRESS =     0.0
 Etot   =       176.6119  EKtot   =       110.1857  EPtot      =       134.4095
 BOND   =        19.2680  ANGLE   =        27.6217  DIHED      =        15.9834
 1-4 NB =        10.5390  1-4 EEL =        30.2282  VDWAALS    =       134.2616
 EELEC  =       210.2669  EHBOND  =         0.0000  RESTRAINT  =         0.6235
 EAMBER (non-restraint)  =       133.7860
 DV/DL  =         6.5051
 ------------------------------------------------------------------------------

      A V E R A G E S   O V E R     125 S T E P S

 NSTEP =   125000   TIME(PS) =     250.000  TEMP(K) =   299.84  PRESS =     0.0
 Etot   =    -83288.5319  EKtot   =     20091.8385  EPtot      =   -103380.3704
 BOND   =       503.1864  ANGLE   =      1268.2582  DIHED      =      2065.3392
 1-4 NB =       606.3476  1-4 EEL =      5197.1445  VDWAALS    =     12893.8934
 EELEC  =   -125915.3912  EHBOND  =         0.0000  RESTRAINT  =         0.8516
 EAMBER (non-restraint)  =   -103381.2220
 DV/DL  =        38.6884
 ------------------------------------------------------------------------------

      R M S  F L U C T U A T I O N S

 NSTEP =   125000   TIME(PS) =     250.000  TEMP(K) =     1.64  PRESS =     0.0
 Etot   =       176.6215  EKtot   =       110.0848  EPtot      =       134.4095
 BOND   =        19.2680  ANGLE   =        27.6217  DIHED      =        15.9834
 1-4 NB =        10.5390  1-4 EEL =        30.2282  VDWAALS    =       134.2616
 EELEC  =       210.2669  EHBOND  =         0.0000  RESTRAINT  =         0.6235
 EAMBER (non-restraint)  =       133.7860
 DV/DL  =         6.5051
 ------------------------------------------------------------------------------

      DV/DL, AVERAGES OVER     125 STEPS

 NSTEP =   125000   TIME(PS) =     250.000  TEMP(K) =     1.64  PRESS =     0.0
 Etot   =         0.0000  EKtot   =         0.0000  EPtot      =        38.6884
 BOND   =         0.0000  ANGLE   =         0.0000  DIHED      =         0.0000
 1-4 NB =         0.0000  1-4 EEL =         0.0000  VDWAALS    =        34.1731
 EELEC  =         6.4826  EHBOND  =         0.0000  RESTRAINT  =         0.0000
 DV/DL  =        38.6884
 ------------------------------------------------------------------------------
