-------------------------------------------------------
          Amber 20 PMEMD                              2020
          -------------------------------------------------------

  [-O]verwriting output

File Assignments:

 Here is the input file:

NVT prod
 &cntrl
   imin = 0, nstlim = 1250000, irest = 0, ntx = 1, dt = 0.002,

   ntt = 3, temp0 = 300.0, tempi = 300.0, tautp = 1.0, gamma_ln = 2.0,

   ntb = 1,
   ntc = 2, ntf = 1,
   cut = 10,
   ioutfm = 1, iwrap = 1,
   ntwe = 1000, ntwx = 50000, ntpr = 1000, ntwr = 10000,

   ntr = 0,

   icfe = 1, ifsc = 1, clambda = 0.56262, gti_lam_sch = 1, scalpha = 0.2, scbet
   timask1 = ':1', timask2 = ':2',
   scmask1 = ':1@C29,H62,H59,H58,H57,H56,H55,H54,H53,H52,H51,H50,H49,H48,H47,H4

   !ifmbar = 1, mbar_states = 11,
   !mbar_lambda = 0.0, 0.1, 0.2, 0.3, 0.4, 0.5, 0.6, 0.7, 0.8, 0.9, 1.0,

   nmropt = 0,
 /
 &wt type='DUMPFREQ', istep1 = 1000
 /
 &wt type='END'
 /
LISTIN=POUT
LISTOUT=POUT
DISANG=../../k.RST

DUMPAVE = rstr_prod.dat

Note: ig = -1. Setting random seed to   175819 based on wallclock time in
      microseconds.

--------------------------------------------------------------------------------
   1.  RESOURCE   USE:
--------------------------------------------------------------------------------

 getting box info from netcdf restart file
 NATOM  =    7380 NTYPES =      17 NBONH =    7315 MBONA  =      69
 NTHETH =     137 MTHETA =      95 NPHIH =     220 MPHIA  =     148
 NHPARM =       0 NPARM  =       0 NNB   =   10342 NRES   =    2423
 NBONA  =      69 NTHETA =      95 NPHIA =     148 NUMBND =      24
 NUMANG =      47 NPTRA  =      21 NATYP =      19 NPHB   =       1
 IFBOX  =       1 NMXRS  =      62 IFCAP =       0 NEXTRA =       0
 NCOPY  =       0

     BOX TYPE: RECTILINEAR

--------------------------------------------------------------------------------
   2.  CONTROL  DATA  FOR  THE  RUN
--------------------------------------------------------------------------------

L0

General flags:
     imin    =       0, nmropt  =       0

Nature and format of input:
     ntx     =       1, irest   =       0, ntrx    =       1

Nature and format of output:
     ntxo    =       2, ntpr    =    1000, ntrx    =       1, ntwr    =   10000
     iwrap   =       1, ntwx    =   50000, ntwv    =       0, ntwe    =    1000
     ioutfm  =       1, ntwprt  =       0, idecomp =       0, rbornstat=      0

Potential function:
     ntf     =       1, ntb     =       1, igb     =       0, nsnb    =      25
     ipol    =       0, gbsa    =       0, iesp    =       0
     dielc   =   1.00000, cut     =  10.00000, intdiel =   1.00000

Frozen or restrained atoms:
     ibelly  =       0, ntr     =       0

Molecular dynamics:
     nstlim  =   1250000, nscm    =      1000, nrespa  =         1
     t       =   0.00000, dt      =   0.00200, vlimit  =  -1.00000

Langevin dynamics temperature regulation:
     ig      =  175819
     temp0   = 300.00000, tempi   = 300.00000, gamma_ln=   2.00000

SHAKE:
     ntc     =       2, jfastw  =       0
     tol     =   0.00001

Free energy options:
     icfe    =       1, ifsc    =       1, klambda =       1
     clambda =  0.5626, scalpha =  0.2000, scbeta  = 50.0000
     sceeorder =       2
     dynlmb =  0.0000 logdvdl =       0

Ewald parameters:
     verbose =       0, ew_type =       0, nbflag  =       1, use_pme =       1
     vdwmeth =       1, eedmeth =       1, netfrc  =       1
     Box X =   37.649   Box Y =   39.667   Box Z =   49.387
     Alpha =   90.000   Beta  =   90.000   Gamma =   90.000
     NFFT1 =   40       NFFT2 =   40       NFFT3 =   56
     Cutoff=   10.000   Tol   =0.100E-04
     Ewald Coefficient =  0.27511
     Interpolation order =    4
     TI Mask 1 :1; matches     62 atoms
     TI Mask 2 :2; matches     61 atoms
     TI region 1:    7319 atoms
     TI region 2:    7318 atoms
     SC Mask 1 :1@C29,H62,H59,H58,H57,H56,H55,H54,H53,H52,H51,H50,H49,H48,H47,H46,H41,H40,H39,H38,H37,H36,H35,H34,H33,H32,C27,O26,C25,O24,C23,O22,C21,C20,C19,C18,C17,C7,C6,C5,C4,N3; matches     42 atoms
     SC Mask 2 :2@H46,C5,C6,C7,O8,C9,C10,C11,C12,C13,C14,O15,C16,C24,C25,N26,C27,C28,H33,H34,H35,H36,H37,H38,H39,H40,H41,H42,H43,H44,H45,H49,H50,H51,H52,H53,H54,H55,H56,H57,H61; matches     41 atoms

--------------------------------------------------------------------------------
   3.  ATOMIC COORDINATES AND VELOCITIES
--------------------------------------------------------------------------------

L0
 begin time read from input coords =   300.000 ps

 Number of triangulated 3-point waters found:     2418
   Removing shake constraints from C2    L0    1 -- H33   L0    1
   Removing shake constraints from C2    L0    1 -- H32   L0    1
   Removing shake constraints from C17   L1    2 -- H46   L1    2
 Number of shake restraints removed in TI region  1 :        2
 Number of shake restraints removed in TI region  2 :        1

     Sum of charges for TI region  1 =  -0.00001901
     Skip neutralizing charges...

     Sum of charges for TI region  2 =  -0.00002499
     Skip neutralizing charges...

--------------------------------------------------------------------------------
   4.  RESULTS
 NSTEP =        0   TIME(PS) =       0.000  TEMP(K) =   444.80  PRESS =     0.0
 Etot   =    -16962.7601  EKtot   =      6485.1892  EPtot      =    -23447.9493
 BOND   =         3.9338  ANGLE   =         5.9762  DIHED      =         6.1053
 1-4 NB =         9.0041  1-4 EEL =       -25.4386  VDWAALS    =      3421.3007
 EELEC  =    -26868.8307  EHBOND  =         0.0000  RESTRAINT  =         0.0000
 DV/DL  =      -128.4459
 ------------------------------------------------------------------------------

      A V E R A G E S   O V E R    1250 S T E P S

 NSTEP =  1250000   TIME(PS) =    2500.000  TEMP(K) =   299.81  PRESS =     0.0
 Etot   =    -19096.4621  EKtot   =      4371.2460  EPtot      =    -23467.7082
 BOND   =         6.2811  ANGLE   =         5.5621  DIHED      =         8.1344
 1-4 NB =         8.4185  1-4 EEL =       -25.3593  VDWAALS    =      3458.8832
 EELEC  =    -26929.6281  EHBOND  =         0.0000  RESTRAINT  =         0.0000
 DV/DL  =       -87.0138
 ------------------------------------------------------------------------------

      R M S  F L U C T U A T I O N S

 NSTEP =  1250000   TIME(PS) =    2500.000  TEMP(K) =     3.56  PRESS =     0.0
 Etot   =        84.3449  EKtot   =        51.8411  EPtot      =        66.5283
 BOND   =         1.8448  ANGLE   =         1.7090  DIHED      =         1.9784
 1-4 NB =         0.8263  1-4 EEL =         0.7028  VDWAALS    =        75.9316
 EELEC  =       111.0941  EHBOND  =         0.0000  RESTRAINT  =         0.0000
 DV/DL  =        17.3671
 ------------------------------------------------------------------------------

      A V E R A G E S   O V E R    1250 S T E P S

 NSTEP =  1250000   TIME(PS) =    2500.000  TEMP(K) =   299.80  PRESS =     0.0
 Etot   =    -19097.4633  EKtot   =      4370.2449  EPtot      =    -23467.7082
 BOND   =         6.2811  ANGLE   =         5.5621  DIHED      =         8.1344
 1-4 NB =         8.4185  1-4 EEL =       -25.3593  VDWAALS    =      3458.8832
 EELEC  =    -26929.6281  EHBOND  =         0.0000  RESTRAINT  =         0.0000
 DV/DL  =       -87.0138
 ------------------------------------------------------------------------------

      R M S  F L U C T U A T I O N S

 NSTEP =  1250000   TIME(PS) =    2500.000  TEMP(K) =     3.56  PRESS =     0.0
 Etot   =        84.3449  EKtot   =        51.9473  EPtot      =        66.5283
 BOND   =         1.8448  ANGLE   =         1.7090  DIHED      =         1.9784
 1-4 NB =         0.8263  1-4 EEL =         0.7028  VDWAALS    =        75.9316
 EELEC  =       111.0941  EHBOND  =         0.0000  RESTRAINT  =         0.0000
 DV/DL  =        17.3671
 ------------------------------------------------------------------------------

      DV/DL, AVERAGES OVER    1250 STEPS

 NSTEP =  1250000   TIME(PS) =    2500.000  TEMP(K) =     3.56  PRESS =     0.0
 Etot   =         0.0000  EKtot   =         0.0000  EPtot      =       -87.0138
 BOND   =        -0.6440  ANGLE   =         0.1556  DIHED      =         0.0000
 1-4 NB =        -0.2323  1-4 EEL =       107.3418  VDWAALS    =        -6.3496
 EELEC  =      -179.2619  EHBOND  =         0.0000  RESTRAINT  =         0.0000
 DV/DL  =       -87.0138
 ------------------------------------------------------------------------------
