-------------------------------------------------------
          Amber 20 PMEMD                              2020
          -------------------------------------------------------

  [-O]verwriting output

File Assignments:

 Here is the input file:

NPT prod
 &cntrl
   imin = 0, nstlim = 125000, irest = 0, ntx = 1, dt = 0.002,

   ntt = 3, temp0 = 300.0, tempi = 300.0, tautp = 1.0, gamma_ln = 2.0,

   ntb = 1,
   ntc = 2, ntf = 1,
   cut = 10,
   ioutfm = 1, iwrap = 1,
   ntwe = 1000, ntwx = 2500, ntpr = 1000, ntwr = 100000,

   ntr = 0, restraintmask=':2-3,356-357@CA', restraint_wt=0.5,

   icfe = 1, ifsc = 1, clambda = 0.7, gti_lam_sch = 1,
   scalpha=0.2, scbeta=50.0,
   timask1 = ':MOL', timask2 = '',
   scmask1 = ':MOL', scmask2 = '',

!  ifmbar = 1, mbar_states = 12,
!  mbar_lambda = 0.00922, 0.04794, 0.11505, 0.20634, 0.31608, 0.43738, 0.56262,

   nmropt = 1,
 /
 &wt type='DUMPFREQ', istep1 = 1000
 /
 &wt type='END'
 /
LISTIN=POUT
LISTOUT=POUT
DISANG=../../k.RST

DUMPAVE = rstr_prod.dat

Note: ig = -1. Setting random seed to   751994 based on wallclock time in
      microseconds.

--------------------------------------------------------------------------------
   1.  RESOURCE   USE:
--------------------------------------------------------------------------------

 getting box info from netcdf restart file
 NATOM  =   33089 NTYPES =      25 NBONH =   31780 MBONA  =    1321
 NTHETH =    2979 MTHETA =    1777 NPHIH =    6059 MPHIA  =    5536
 NHPARM =       0 NPARM  =       0 NNB   =   55000 NRES   =   10325
 NBONA  =    1321 NTHETA =    1777 NPHIA =    5536 NUMBND =      75
 NUMANG =     163 NPTRA  =     195 NATYP =      44 NPHB   =       1
 IFBOX  =       1 NMXRS  =      24 IFCAP =       0 NEXTRA =       0
 NCOPY  =       0

     BOX TYPE: RECTILINEAR

--------------------------------------------------------------------------------
   2.  CONTROL  DATA  FOR  THE  RUN
--------------------------------------------------------------------------------

default_name

General flags:
     imin    =       0, nmropt  =       1

Nature and format of input:
     ntx     =       1, irest   =       0, ntrx    =       1

Nature and format of output:
     ntxo    =       2, ntpr    =    1000, ntrx    =       1, ntwr    =  100000
     iwrap   =       1, ntwx    =    2500, ntwv    =       0, ntwe    =    1000
     ioutfm  =       1, ntwprt  =       0, idecomp =       0, rbornstat=      0

Potential function:
     ntf     =       1, ntb     =       1, igb     =       0, nsnb    =      25
     ipol    =       0, gbsa    =       0, iesp    =       0
     dielc   =   1.00000, cut     =  10.00000, intdiel =   1.00000

Frozen or restrained atoms:
     ibelly  =       0, ntr     =       0

Molecular dynamics:
     nstlim  =    125000, nscm    =      1000, nrespa  =         1
     t       =   0.00000, dt      =   0.00200, vlimit  =  -1.00000

Langevin dynamics temperature regulation:
     ig      =  751994
     temp0   = 300.00000, tempi   = 300.00000, gamma_ln=   2.00000

SHAKE:
     ntc     =       2, jfastw  =       0
     tol     =   0.00001

NMR refinement options:
     iscale  =       0, noeskp  =       1, ipnlty  =       1, mxsub   =       1
     scalm   = 100.00000, pencut  =   0.10000, tausw   =   0.10000

Free energy options:
     icfe    =       1, ifsc    =       1, klambda =       1
     clambda =  0.7000, scalpha =  0.2000, scbeta  = 50.0000
     sceeorder =       2
     dynlmb =  0.0000 logdvdl =       0

Ewald parameters:
     verbose =       0, ew_type =       0, nbflag  =       1, use_pme =       1
     vdwmeth =       1, eedmeth =       1, netfrc  =       1
     Box X =   67.277   Box Y =   63.126   Box Z =   78.040
     Alpha =   90.000   Beta  =   90.000   Gamma =   90.000
     NFFT1 =   64       NFFT2 =   64       NFFT3 =   80
     Cutoff=   10.000   Tol   =0.100E-04
     Ewald Coefficient =  0.27511
     Interpolation order =    4
     TI Mask 1 :MOL; matches     18 atoms
     TI Mask 2  matches      0 atoms
     TI region 1:   33089 atoms
     TI region 2:   33071 atoms
     SC Mask 1 :MOL; matches     18 atoms

--------------------------------------------------------------------------------
   3.  ATOMIC COORDINATES AND VELOCITIES
--------------------------------------------------------------------------------

default_name
 begin time read from input coords =  1000.000 ps

           Begin reading energy term weight changes/NMR restraints
 WEIGHT CHANGES:
 DUMPFREQ   1000      0    0.000000    0.000000      0      0
                         ** No weight changes given **

 RESTRAINTS:
 Requested file redirections:
  LISTIN    = POUT
  LISTOUT   = POUT
  DISANG    = ../../k.RST
  DUMPAVE   = rstr_prod.dat
 Restraints will be read from file: ../../k.RST
Here are comments from the DISANG input file:

******
 C6  (   11)-CA  ( 1581)                            NSTEP1=     0 NSTEP2=     0
R1 =  -6.056 R2 =   3.944 R3 =   3.944 R4 =  13.944 RK2 =   2.000 RK3 =    2.000
 Rcurr:    4.138  Rcurr-(R2+R3)/2:    0.195  MIN(Rcurr-R2,Rcurr-R3):    0.195
******
 C6  (   11)-CA  ( 1581)-CA  ( 1591)                NSTEP1=     0 NSTEP2=     0
R1 =  41.906 R2 = 131.906 R3 = 131.906 R4 = 221.906 RK2 =  10.000 RK3 =   10.000
 Rcurr:  130.200  Rcurr-(R2+R3)/2:    1.706  MIN(Rcurr-R2,Rcurr-R3):    1.706
******
 C6  (   11)-CA  ( 1581)-CA  ( 1591)-CA  ( 1610)    NSTEP1=     0 NSTEP2=     0
R1 =-212.693 R2 =-122.693 R3 =-122.693 R4 = -32.693 RK2 =  20.000 RK3 =   20.000
 Rcurr: -118.739  Rcurr-(R2+R3)/2:    3.953  MIN(Rcurr-R2,Rcurr-R3):    3.953
******
 C1  (    1)-C6  (   11)-CA  ( 1581)                NSTEP1=     0 NSTEP2=     0
R1 = -30.733 R2 =  59.267 R3 =  59.267 R4 = 149.267 RK2 =  10.000 RK3 =   10.000
 Rcurr:   43.658  Rcurr-(R2+R3)/2:   15.609  MIN(Rcurr-R2,Rcurr-R3):   15.609
******
 C1  (    1)-C6  (   11)-CA  ( 1581)-CA  ( 1591)    NSTEP1=     0 NSTEP2=     0
R1 = -71.599 R2 =  18.401 R3 =  18.401 R4 = 108.401 RK2 =  20.000 RK3 =   20.000
 Rcurr:   22.174  Rcurr-(R2+R3)/2:    3.772  MIN(Rcurr-R2,Rcurr-R3):    3.772
******
 C2  (    3)-C1  (    1)-C6  (   11)-CA  ( 1581)    NSTEP1=     0 NSTEP2=     0
R1 =-194.315 R2 =-104.315 R3 =-104.315 R4 = -14.315 RK2 =  20.000 RK3 =   20.000
 Rcurr: -109.788  Rcurr-(R2+R3)/2:    5.473  MIN(Rcurr-R2,Rcurr-R3):    5.473
                       Number of restraints read =     6

                  Done reading weight changes/NMR restraints

 Number of triangulated 3-point waters found:    10154
 Number of shake restraints removed in TI region  1 :        0
 Number of shake restraints removed in TI region  2 :        0

     Sum of charges for TI region  1 =  -0.00000008
     Skip neutralizing charges...

     Sum of charges for TI region  2 =  -0.00000007
     Skip neutralizing charges...

--------------------------------------------------------------------------------
   4.  RESULTS
 NSTEP =        0   TIME(PS) =       0.000  TEMP(K) =   441.46  PRESS =     0.0
 Etot   =    -73573.5400  EKtot   =     29601.7329  EPtot      =   -103175.2729
 BOND   =       509.0784  ANGLE   =      1315.2901  DIHED      =      2051.2630
 1-4 NB =       622.5196  1-4 EEL =      5183.0168  VDWAALS    =     12680.4171
 EELEC  =   -125538.0492  EHBOND  =         0.0000  RESTRAINT  =         1.1913
 EAMBER (non-restraint)  =   -103176.4642
 DV/DL  =        22.9131
 ------------------------------------------------------------------------------

      A V E R A G E S   O V E R     125 S T E P S

 NSTEP =   125000   TIME(PS) =     250.000  TEMP(K) =   299.70  PRESS =     0.0
 Etot   =    -83252.0081  EKtot   =     20096.4346  EPtot      =   -103348.4426
 BOND   =       500.3291  ANGLE   =      1264.8971  DIHED      =      2066.4831
 1-4 NB =       603.4778  1-4 EEL =      5223.3007  VDWAALS    =     12899.6617
 EELEC  =   -125907.8917  EHBOND  =         0.0000  RESTRAINT  =         1.2995
 EAMBER (non-restraint)  =   -103349.7421
 DV/DL  =        16.3010
 ------------------------------------------------------------------------------

      R M S  F L U C T U A T I O N S

 NSTEP =   125000   TIME(PS) =     250.000  TEMP(K) =     1.59  PRESS =     0.0
 Etot   =       187.3266  EKtot   =       106.8696  EPtot      =       141.6202
 BOND   =        19.1976  ANGLE   =        30.5366  DIHED      =        15.1862
 1-4 NB =        10.7026  1-4 EEL =        29.2636  VDWAALS    =       149.8399
 EELEC  =       229.8681  EHBOND  =         0.0000  RESTRAINT  =         0.8341
 EAMBER (non-restraint)  =       140.7860
 DV/DL  =        10.5504
 ------------------------------------------------------------------------------

      A V E R A G E S   O V E R     125 S T E P S

 NSTEP =   125000   TIME(PS) =     250.000  TEMP(K) =   299.71  PRESS =     0.0
 Etot   =    -83265.3934  EKtot   =     20083.0493  EPtot      =   -103348.4426
 BOND   =       500.3291  ANGLE   =      1264.8971  DIHED      =      2066.4831
 1-4 NB =       603.4778  1-4 EEL =      5223.3007  VDWAALS    =     12899.6617
 EELEC  =   -125907.8917  EHBOND  =         0.0000  RESTRAINT  =         1.2995
 EAMBER (non-restraint)  =   -103349.7421
 DV/DL  =        16.3010
 ------------------------------------------------------------------------------

      R M S  F L U C T U A T I O N S

 NSTEP =   125000   TIME(PS) =     250.000  TEMP(K) =     1.60  PRESS =     0.0
 Etot   =       187.1010  EKtot   =       107.0115  EPtot      =       141.6202
 BOND   =        19.1976  ANGLE   =        30.5366  DIHED      =        15.1862
 1-4 NB =        10.7026  1-4 EEL =        29.2636  VDWAALS    =       149.8399
 EELEC  =       229.8681  EHBOND  =         0.0000  RESTRAINT  =         0.8341
 EAMBER (non-restraint)  =       140.7860
 DV/DL  =        10.5504
 ------------------------------------------------------------------------------

      DV/DL, AVERAGES OVER     125 STEPS

 NSTEP =   125000   TIME(PS) =     250.000  TEMP(K) =     1.60  PRESS =     0.0
 Etot   =         0.0000  EKtot   =         0.0000  EPtot      =        16.3010
 BOND   =         0.0000  ANGLE   =         0.0000  DIHED      =         0.0000
 1-4 NB =         0.0000  1-4 EEL =         0.0000  VDWAALS    =        19.4275
 EELEC  =         2.5058  EHBOND  =         0.0000  RESTRAINT  =         0.0000
 DV/DL  =        16.3010
 ------------------------------------------------------------------------------
