-------------------------------------------------------
          Amber 20 PMEMD                              2020
          -------------------------------------------------------

  [-O]verwriting output

File Assignments:

 Here is the input file:

NVT prod
 &cntrl
   imin = 0, nstlim = 250000, irest = 0, ntx = 1, dt = 0.002,

   ntt = 3, temp0 = 300.0, tempi = 300.0, tautp = 1.0, gamma_ln = 2.0,

   ntb = 1,
   ntc = 2, ntf = 1,
   cut = 10,
   ioutfm = 1, iwrap = 1,
   ntwe = 1000, ntwx = 50000, ntpr = 1000, ntwr = 10000,

   ntr = 0,

   icfe = 1, ifsc = 1, clambda = 0.00922, gti_lam_sch = 1, scalpha = 0.2, scbet
   timask1 = ':1', timask2 = ':2',
   scmask1 = ':1@C29,H62,H59,H58,H57,H56,H55,H54,H53,H52,H51,H50,H49,H48,H47,H4

   !ifmbar = 1, mbar_states = 11,
   !mbar_lambda = 0.0, 0.1, 0.2, 0.3, 0.4, 0.5, 0.6, 0.7, 0.8, 0.9, 1.0,

   nmropt = 0,
 /
 &wt type='DUMPFREQ', istep1 = 1000
 /
 &wt type='END'
 /
LISTIN=POUT
LISTOUT=POUT
DISANG=../k.RST

DUMPAVE = rstr_prod.dat

Note: ig = -1. Setting random seed to   430278 based on wallclock time in
      microseconds.

--------------------------------------------------------------------------------
   1.  RESOURCE   USE:
--------------------------------------------------------------------------------

 getting box info from netcdf restart file
 NATOM  =   17464 NTYPES =      31 NBONH =   15011 MBONA  =    2503
 NTHETH =    5537 MTHETA =    3396 NPHIH =   11178 MPHIA  =   10632
 NHPARM =       0 NPARM  =       0 NNB   =   43744 NRES   =    4497
 NBONA  =    2503 NTHETA =    3396 NPHIA =   10632 NUMBND =      93
 NUMANG =     208 NPTRA  =     215 NATYP =      53 NPHB   =       1
 IFBOX  =       1 NMXRS  =      62 IFCAP =       0 NEXTRA =       0
 NCOPY  =       0

     BOX TYPE: RECTILINEAR

--------------------------------------------------------------------------------
   2.  CONTROL  DATA  FOR  THE  RUN
--------------------------------------------------------------------------------

L0

General flags:
     imin    =       0, nmropt  =       0

Nature and format of input:
     ntx     =       1, irest   =       0, ntrx    =       1

Nature and format of output:
     ntxo    =       2, ntpr    =    1000, ntrx    =       1, ntwr    =   10000
     iwrap   =       1, ntwx    =   50000, ntwv    =       0, ntwe    =    1000
     ioutfm  =       1, ntwprt  =       0, idecomp =       0, rbornstat=      0

Potential function:
     ntf     =       1, ntb     =       1, igb     =       0, nsnb    =      25
     ipol    =       0, gbsa    =       0, iesp    =       0
     dielc   =   1.00000, cut     =  10.00000, intdiel =   1.00000

Frozen or restrained atoms:
     ibelly  =       0, ntr     =       0

Molecular dynamics:
     nstlim  =    250000, nscm    =      1000, nrespa  =         1
     t       =   0.00000, dt      =   0.00200, vlimit  =  -1.00000

Langevin dynamics temperature regulation:
     ig      =  430278
     temp0   = 300.00000, tempi   = 300.00000, gamma_ln=   2.00000

SHAKE:
     ntc     =       2, jfastw  =       0
     tol     =   0.00001

Free energy options:
     icfe    =       1, ifsc    =       1, klambda =       1
     clambda =  0.0092, scalpha =  0.2000, scbeta  = 50.0000
     sceeorder =       2
     dynlmb =  0.0000 logdvdl =       0

Ewald parameters:
     verbose =       0, ew_type =       0, nbflag  =       1, use_pme =       1
     vdwmeth =       1, eedmeth =       1, netfrc  =       1
     Box X =   59.547   Box Y =   51.415   Box Z =   55.460
     Alpha =   90.000   Beta  =   90.000   Gamma =   90.000
     NFFT1 =   64       NFFT2 =   56       NFFT3 =   56
     Cutoff=   10.000   Tol   =0.100E-04
     Ewald Coefficient =  0.27511
     Interpolation order =    4
     TI Mask 1 :1; matches     62 atoms
     TI Mask 2 :2; matches     61 atoms
     TI region 1:   17403 atoms
     TI region 2:   17402 atoms
     SC Mask 1 :1@C29,H62,H59,H58,H57,H56,H55,H54,H53,H52,H51,H50,H49,H48,H47,H46,H41,H40,H39,H38,H37,H36,H35,H34,H33,H32,C27,O26,C25,O24,C23,O22,C21,C20,C19,C18,C17,C7,C6,C5,C4,N3; matches     42 atoms
     SC Mask 2 :2@H46,C5,C6,C7,O8,C9,C10,C11,C12,C13,C14,O15,C16,C24,C25,N26,C27,C28,H33,H34,H35,H36,H37,H38,H39,H40,H41,H42,H43,H44,H45,H49,H50,H51,H52,H53,H54,H55,H56,H57,H61; matches     41 atoms

--------------------------------------------------------------------------------
   3.  ATOMIC COORDINATES AND VELOCITIES
--------------------------------------------------------------------------------

L0
 begin time read from input coords =   500.000 ps

 Number of triangulated 3-point waters found:     4189
   Removing shake constraints from C2    L0    1 -- H33   L0    1
   Removing shake constraints from C2    L0    1 -- H32   L0    1
   Removing shake constraints from C17   L1    2 -- H46   L1    2
 Number of shake restraints removed in TI region  1 :        2
 Number of shake restraints removed in TI region  2 :        1

     Sum of charges for TI region  1 =  -0.00001916
     Skip neutralizing charges...

     Sum of charges for TI region  2 =  -0.00002514
     Skip neutralizing charges...

--------------------------------------------------------------------------------
   4.  RESULTS
 NSTEP =        0   TIME(PS) =       0.000  TEMP(K) =   425.98  PRESS =     0.0
 Etot   =    -33982.3179  EKtot   =     15757.6186  EPtot      =    -49739.9365
 BOND   =       893.2351  ANGLE   =      2416.3671  DIHED      =      3822.3002
 1-4 NB =      1112.5664  1-4 EEL =     10613.9077  VDWAALS    =      2922.3977
 EELEC  =    -71520.7108  EHBOND  =         0.0000  RESTRAINT  =         0.0000
 DV/DL  =         0.9004
 ------------------------------------------------------------------------------

      A V E R A G E S   O V E R     250 S T E P S

 NSTEP =   250000   TIME(PS) =     500.000  TEMP(K) =   300.16  PRESS =     0.0
 Etot   =    -38575.1945  EKtot   =     11103.3017  EPtot      =    -49678.4962
 BOND   =       931.8119  ANGLE   =      2458.7329  DIHED      =      3819.7103
 1-4 NB =      1101.0122  1-4 EEL =     10618.3227  VDWAALS    =      2936.0093
 EELEC  =    -71544.0954  EHBOND  =         0.0000  RESTRAINT  =         0.0000
 DV/DL  =         0.8721
 ------------------------------------------------------------------------------

      R M S  F L U C T U A T I O N S

 NSTEP =   250000   TIME(PS) =     500.000  TEMP(K) =     2.18  PRESS =     0.0
 Etot   =       122.5853  EKtot   =        80.7879  EPtot      =        94.8411
 BOND   =        25.8141  ANGLE   =        36.4666  DIHED      =        20.1792
 1-4 NB =        13.6274  1-4 EEL =        35.3899  VDWAALS    =       100.3035
 EELEC  =       142.3835  EHBOND  =         0.0000  RESTRAINT  =         0.0000
 DV/DL  =         0.1522
 ------------------------------------------------------------------------------

      A V E R A G E S   O V E R     250 S T E P S

 NSTEP =   250000   TIME(PS) =     500.000  TEMP(K) =   300.15  PRESS =     0.0
 Etot   =    -38576.2157  EKtot   =     11102.2805  EPtot      =    -49678.4962
 BOND   =       931.8119  ANGLE   =      2458.7329  DIHED      =      3819.7103
 1-4 NB =      1101.0122  1-4 EEL =     10618.3227  VDWAALS    =      2936.0093
 EELEC  =    -71544.0954  EHBOND  =         0.0000  RESTRAINT  =         0.0000
 DV/DL  =         0.8721
 ------------------------------------------------------------------------------

      R M S  F L U C T U A T I O N S

 NSTEP =   250000   TIME(PS) =     500.000  TEMP(K) =     2.19  PRESS =     0.0
 Etot   =       122.9932  EKtot   =        81.0336  EPtot      =        94.8411
 BOND   =        25.8141  ANGLE   =        36.4666  DIHED      =        20.1792
 1-4 NB =        13.6274  1-4 EEL =        35.3899  VDWAALS    =       100.3035
 EELEC  =       142.3835  EHBOND  =         0.0000  RESTRAINT  =         0.0000
 DV/DL  =         0.1522
 ------------------------------------------------------------------------------

      DV/DL, AVERAGES OVER     250 STEPS

 NSTEP =   250000   TIME(PS) =     500.000  TEMP(K) =     2.19  PRESS =     0.0
 Etot   =         0.0000  EKtot   =         0.0000  EPtot      =         0.8721
 BOND   =         0.0157  ANGLE   =         0.0003  DIHED      =         0.0000
 1-4 NB =         0.0033  1-4 EEL =         0.1475  VDWAALS    =         0.4181
 EELEC  =        -0.1474  EHBOND  =         0.0000  RESTRAINT  =         0.0000
 DV/DL  =         0.8721
 ------------------------------------------------------------------------------
