-------------------------------------------------------
          Amber 20 PMEMD                              2020
          -------------------------------------------------------

  [-O]verwriting output

File Assignments:

 Here is the input file:

&cntrl
 ig=-1,
 iwrap = 1,
 imin = 0,
 nstlim = 50000, dt = 0.002,
 irest = 1,
 ioutfm = 1,
 ntxo = 2,
 ntx = 5,
 ntb = 2,
 ntp = 1, barostat = 2, pres0 = 1.0,
 taup = 1.0,
 ntt = 3, gamma_ln = 1.0, tempi = 300.0, temp0 = 300.0,
 ntr = 1,
 ntc = 2, ntf = 1,
 cut = 10.0,
 ntpr=1000, ntwx=0, ntwr=1000,

 restraintmask=':309|@CA|:1,2&!@H=',
 restraint_wt=20.0,

 icfe = 1, ifsc = 1, clambda = 0.11505, gti_lam_sch = 1, scalpha = 0.2, scbeta
 timask1 = ':1', timask2 = ':2',
 scmask1 = ':1@C29,H62,H59,H58,H57,H56,H55,H54,H53,H52,H51,H50,H49,H48,H47,H46,

 nmropt = 0,
 /
 &wt type='DUMPFREQ', istep1 = 1000
 /
 &wt type='END'
 /
LISTIN=POUT
LISTOUT=POUT
DISANG=../k.RST
DUMPAVE = rstr_npt2.dat

Note: ig = -1. Setting random seed to   970793 based on wallclock time in
      microseconds.

--------------------------------------------------------------------------------
   1.  RESOURCE   USE:
--------------------------------------------------------------------------------

 getting box info from netcdf restart file
 NATOM  =   17464 NTYPES =      31 NBONH =   15011 MBONA  =    2503
 NTHETH =    5537 MTHETA =    3396 NPHIH =   11178 MPHIA  =   10632
 NHPARM =       0 NPARM  =       0 NNB   =   43744 NRES   =    4497
 NBONA  =    2503 NTHETA =    3396 NPHIA =   10632 NUMBND =      93
 NUMANG =     208 NPTRA  =     215 NATYP =      53 NPHB   =       1
 IFBOX  =       1 NMXRS  =      62 IFCAP =       0 NEXTRA =       0
 NCOPY  =       0

     BOX TYPE: RECTILINEAR

--------------------------------------------------------------------------------
   2.  CONTROL  DATA  FOR  THE  RUN
--------------------------------------------------------------------------------

L0

General flags:
     imin    =       0, nmropt  =       0

Nature and format of input:
     ntx     =       5, irest   =       1, ntrx    =       1

Nature and format of output:
     ntxo    =       2, ntpr    =    1000, ntrx    =       1, ntwr    =    1000
     iwrap   =       1, ntwx    =       0, ntwv    =       0, ntwe    =       0
     ioutfm  =       1, ntwprt  =       0, idecomp =       0, rbornstat=      0

Potential function:
     ntf     =       1, ntb     =       2, igb     =       0, nsnb    =      25
     ipol    =       0, gbsa    =       0, iesp    =       0
     dielc   =   1.00000, cut     =  10.00000, intdiel =   1.00000

Frozen or restrained atoms:
     ibelly  =       0, ntr     =       1
     restraint_wt =  20.00000

Molecular dynamics:
     nstlim  =     50000, nscm    =         0, nrespa  =         1
     t       =   0.00000, dt      =   0.00200, vlimit  =  -1.00000

Langevin dynamics temperature regulation:
     ig      =  970793
     temp0   = 300.00000, tempi   = 300.00000, gamma_ln=   1.00000

Pressure regulation:
     ntp     =       1
     pres0   =   1.00000, comp    =  44.60000, taup    =   1.00000
     Monte-Carlo Barostat:
     mcbarint  =     100

SHAKE:
     ntc     =       2, jfastw  =       0
     tol     =   0.00001

Free energy options:
     icfe    =       1, ifsc    =       1, klambda =       1
     clambda =  0.1150, scalpha =  0.2000, scbeta  = 50.0000
     sceeorder =       2
     dynlmb =  0.0000 logdvdl =       0

Ewald parameters:
     verbose =       0, ew_type =       0, nbflag  =       1, use_pme =       1
     vdwmeth =       1, eedmeth =       1, netfrc  =       1
     Box X =   60.921   Box Y =   52.602   Box Z =   56.740
     Alpha =   90.000   Beta  =   90.000   Gamma =   90.000
     NFFT1 =   64       NFFT2 =   56       NFFT3 =   64
     Cutoff=   10.000   Tol   =0.100E-04
     Ewald Coefficient =  0.27511
     Interpolation order =    4

    LOADING THE CONSTRAINED ATOMS AS GROUPS

   5.  REFERENCE ATOM COORDINATES

  L0
     Mask :309|@CA|:1,2&!@H=; matches   361 atoms
     TI Mask 1 :1; matches     62 atoms
     TI Mask 2 :2; matches     61 atoms
     TI region 1:   17403 atoms
     TI region 2:   17402 atoms
     SC Mask 1 :1@C29,H62,H59,H58,H57,H56,H55,H54,H53,H52,H51,H50,H49,H48,H47,H46,H41,H40,H39,H38,H37,H36,H35,H34,H33,H32,C27,O26,C25,O24,C23,O22,C21,C20,C19,C18,C17,C7,C6,C5,C4,N3; matches     42 atoms
     SC Mask 2 :2@H46,C5,C6,C7,O8,C9,C10,C11,C12,C13,C14,O15,C16,C24,C25,N26,C27,C28,H33,H34,H35,H36,H37,H38,H39,H40,H41,H42,H43,H44,H45,H49,H50,H51,H52,H53,H54,H55,H56,H57,H61; matches     41 atoms

--------------------------------------------------------------------------------
   3.  ATOMIC COORDINATES AND VELOCITIES
--------------------------------------------------------------------------------

L0
 begin time read from input coords =    76.000 ps

     Molecule     1 is partially softcore
     Molecule     2 is partially softcore
 Number of triangulated 3-point waters found:     4189
   Removing shake constraints from C2    L0    1 -- H33   L0    1
   Removing shake constraints from C2    L0    1 -- H32   L0    1
   Removing shake constraints from C17   L1    2 -- H46   L1    2
 Number of shake restraints removed in TI region  1 :        2
 Number of shake restraints removed in TI region  2 :        1

     Sum of charges for TI region  1 =  -0.00001916
     Skip neutralizing charges...

     Sum of charges for TI region  2 =  -0.00002514
     Skip neutralizing charges...

--------------------------------------------------------------------------------
   4.  RESULTS
 NSTEP =     1000   TIME(PS) =      78.000  TEMP(K) =   297.33  PRESS =     0.0
 Etot   =    -37946.4044  EKtot   =     10998.5282  EPtot      =    -48944.9326
 BOND   =       891.8944  ANGLE   =      2376.2027  DIHED      =      3833.2372
 1-4 NB =      1121.6743  1-4 EEL =     10572.8364  VDWAALS    =      2718.1190
 EELEC  =    -70625.2267  EHBOND  =         0.0000  RESTRAINT  =       166.3301
 EAMBER (non-restraint)  =    -49111.2627
 EKCMT  =         0.0000  VIRIAL  =         0.0000  VOLUME     =    180634.1047
                                                    Density    =         1.0120
 DV/DL  =        64.2517
 ------------------------------------------------------------------------------

      A V E R A G E S   O V E R      50 S T E P S

 NSTEP =    50000   TIME(PS) =     176.000  TEMP(K) =   300.09  PRESS =     0.0
 Etot   =    -38238.2527  EKtot   =     11100.7951  EPtot      =    -49339.0478
 BOND   =       911.8982  ANGLE   =      2420.7878  DIHED      =      3822.5319
 1-4 NB =      1119.6751  1-4 EEL =     10595.0000  VDWAALS    =      2882.8231
 EELEC  =    -71265.1912  EHBOND  =         0.0000  RESTRAINT  =       173.4272
 EAMBER (non-restraint)  =    -49512.4750
 EKCMT  =         0.0000  VIRIAL  =         0.0000  VOLUME     =    171795.5962
                                                    Density    =         1.0643
 DV/DL  =        67.7447
 ------------------------------------------------------------------------------

      R M S  F L U C T U A T I O N S

 NSTEP =    50000   TIME(PS) =     176.000  TEMP(K) =     2.19  PRESS =     0.0
 Etot   =       190.5103  EKtot   =        81.1922  EPtot      =       189.6784
 BOND   =        28.6881  ANGLE   =        33.8126  DIHED      =        17.6440
 1-4 NB =        11.2611  1-4 EEL =        37.5052  VDWAALS    =       115.8768
 EELEC  =       263.3194  EHBOND  =         0.0000  RESTRAINT  =         8.0911
 EAMBER (non-restraint)  =       181.5874
 EKCMT  =         0.0000  VIRIAL  =         0.0000  VOLUME     =      2748.3591
                                                    Density    =         0.0165
 DV/DL  =        13.2606
 ------------------------------------------------------------------------------

      A V E R A G E S   O V E R      50 S T E P S

 NSTEP =    50000   TIME(PS) =     176.000  TEMP(K) =   300.08  PRESS =     0.0
 Etot   =    -38239.6691  EKtot   =     11099.3787  EPtot      =    -49339.0478
 BOND   =       911.8982  ANGLE   =      2420.7878  DIHED      =      3822.5319
 1-4 NB =      1119.6751  1-4 EEL =     10595.0000  VDWAALS    =      2882.8231
 EELEC  =    -71265.1912  EHBOND  =         0.0000  RESTRAINT  =       173.4272
 EAMBER (non-restraint)  =    -49512.4750
 EKCMT  =         0.0000  VIRIAL  =         0.0000  VOLUME     =    171795.5962
                                                    Density    =         1.0643
 DV/DL  =        67.7447
 ------------------------------------------------------------------------------

      R M S  F L U C T U A T I O N S

 NSTEP =    50000   TIME(PS) =     176.000  TEMP(K) =     2.16  PRESS =     0.0
 Etot   =       190.6447  EKtot   =        79.7429  EPtot      =       189.6784
 BOND   =        28.6881  ANGLE   =        33.8126  DIHED      =        17.6440
 1-4 NB =        11.2611  1-4 EEL =        37.5052  VDWAALS    =       115.8768
 EELEC  =       263.3194  EHBOND  =         0.0000  RESTRAINT  =         8.0911
 EAMBER (non-restraint)  =       181.5874
 EKCMT  =         0.0000  VIRIAL  =         0.0000  VOLUME     =      2748.3591
                                                    Density    =         0.0165
 DV/DL  =        13.2606
 ------------------------------------------------------------------------------

      DV/DL, AVERAGES OVER      50 STEPS

 NSTEP =    50000   TIME(PS) =     176.000  TEMP(K) =     2.16  PRESS =     0.0
 Etot   =         0.0000  EKtot   =         0.0000  EPtot      =         0.0000
 BOND   =         2.0827  ANGLE   =         0.0267  DIHED      =         0.0000
 1-4 NB =         0.2900  1-4 EEL =        18.0692  VDWAALS    =        37.8942
 EELEC  =       -20.5956  EHBOND  =         0.0000  RESTRAINT  =         0.0000
 EKCMT  =         0.0000  VIRIAL  =         0.0000  VOLUME     =         0.0000
                                                    Density    =         0.0000
 ------------------------------------------------------------------------------
