-------------------------------------------------------
          Amber 20 PMEMD                              2020
          -------------------------------------------------------

  [-O]verwriting output

File Assignments:

 Here is the input file:

&cntrl
 ig=-1,
 iwrap = 1,
 imin = 0,
 nstlim = 50000, dt = 0.002,
 irest = 1,
 ioutfm = 1,
 ntxo = 2,
 ntx = 5,
 ntb = 2,
 ntp = 1, barostat = 2, pres0 = 1.0,
 taup = 1.0,
 ntt = 3, gamma_ln = 1.0, tempi = 300.0, temp0 = 300.0,
 ntr = 1,
 ntc = 2, ntf = 1,
 cut = 10.0,
 ntpr=1000, ntwx = 0, ntwr=1000,

 restraintmask='@CA|:1,2&!@H=',
 restraint_wt=20.0,

 icfe = 1, ifsc = 1, clambda = 0.31608, gti_lam_sch = 1, scalpha = 0.2, scbeta
 timask1 = ':1', timask2 = ':2',
 scmask1 = ':1@C29,H62,H59,H58,H57,H56,H55,H54,H53,H52,H51,H50,H49,H48,H47,H46,

 nmropt = 0,
 /
 &wt type='DUMPFREQ', istep1 = 1000
 /
 &wt type='END'
 /
LISTIN=POUT
LISTOUT=POUT
DISANG=../../k.RST
DUMPAVE = rstr_npt2.dat

Note: ig = -1. Setting random seed to   877735 based on wallclock time in
      microseconds.

--------------------------------------------------------------------------------
   1.  RESOURCE   USE:
--------------------------------------------------------------------------------

 getting box info from netcdf restart file
 NATOM  =    7380 NTYPES =      17 NBONH =    7315 MBONA  =      69
 NTHETH =     137 MTHETA =      95 NPHIH =     220 MPHIA  =     148
 NHPARM =       0 NPARM  =       0 NNB   =   10342 NRES   =    2423
 NBONA  =      69 NTHETA =      95 NPHIA =     148 NUMBND =      24
 NUMANG =      47 NPTRA  =      21 NATYP =      19 NPHB   =       1
 IFBOX  =       1 NMXRS  =      62 IFCAP =       0 NEXTRA =       0
 NCOPY  =       0

     BOX TYPE: RECTILINEAR

--------------------------------------------------------------------------------
   2.  CONTROL  DATA  FOR  THE  RUN
--------------------------------------------------------------------------------

L0

General flags:
     imin    =       0, nmropt  =       0

Nature and format of input:
     ntx     =       5, irest   =       1, ntrx    =       1

Nature and format of output:
     ntxo    =       2, ntpr    =    1000, ntrx    =       1, ntwr    =    1000
     iwrap   =       1, ntwx    =       0, ntwv    =       0, ntwe    =       0
     ioutfm  =       1, ntwprt  =       0, idecomp =       0, rbornstat=      0

Potential function:
     ntf     =       1, ntb     =       2, igb     =       0, nsnb    =      25
     ipol    =       0, gbsa    =       0, iesp    =       0
     dielc   =   1.00000, cut     =  10.00000, intdiel =   1.00000

Frozen or restrained atoms:
     ibelly  =       0, ntr     =       1
     restraint_wt =  20.00000

Molecular dynamics:
     nstlim  =     50000, nscm    =         0, nrespa  =         1
     t       =   0.00000, dt      =   0.00200, vlimit  =  -1.00000

Langevin dynamics temperature regulation:
     ig      =  877735
     temp0   = 300.00000, tempi   = 300.00000, gamma_ln=   1.00000

Pressure regulation:
     ntp     =       1
     pres0   =   1.00000, comp    =  44.60000, taup    =   1.00000
     Monte-Carlo Barostat:
     mcbarint  =     100

SHAKE:
     ntc     =       2, jfastw  =       0
     tol     =   0.00001

Free energy options:
     icfe    =       1, ifsc    =       1, klambda =       1
     clambda =  0.3161, scalpha =  0.2000, scbeta  = 50.0000
     sceeorder =       2
     dynlmb =  0.0000 logdvdl =       0

Ewald parameters:
     verbose =       0, ew_type =       0, nbflag  =       1, use_pme =       1
     vdwmeth =       1, eedmeth =       1, netfrc  =       1
     Box X =   37.839   Box Y =   39.867   Box Z =   49.636
     Alpha =   90.000   Beta  =   90.000   Gamma =   90.000
     NFFT1 =   40       NFFT2 =   40       NFFT3 =   56
     Cutoff=   10.000   Tol   =0.100E-04
     Ewald Coefficient =  0.27511
     Interpolation order =    4

    LOADING THE CONSTRAINED ATOMS AS GROUPS

   5.  REFERENCE ATOM COORDINATES

  L0
     Mask @CA|:1,2&!@H=; matches    62 atoms
     TI Mask 1 :1; matches     62 atoms
     TI Mask 2 :2; matches     61 atoms
     TI region 1:    7319 atoms
     TI region 2:    7318 atoms
     SC Mask 1 :1@C29,H62,H59,H58,H57,H56,H55,H54,H53,H52,H51,H50,H49,H48,H47,H46,H41,H40,H39,H38,H37,H36,H35,H34,H33,H32,C27,O26,C25,O24,C23,O22,C21,C20,C19,C18,C17,C7,C6,C5,C4,N3; matches     42 atoms
     SC Mask 2 :2@H46,C5,C6,C7,O8,C9,C10,C11,C12,C13,C14,O15,C16,C24,C25,N26,C27,C28,H33,H34,H35,H36,H37,H38,H39,H40,H41,H42,H43,H44,H45,H49,H50,H51,H52,H53,H54,H55,H56,H57,H61; matches     41 atoms

--------------------------------------------------------------------------------
   3.  ATOMIC COORDINATES AND VELOCITIES
--------------------------------------------------------------------------------

L0
 begin time read from input coords =   100.000 ps

     Molecule     1 is partially softcore
     Molecule     2 is partially softcore
 Number of triangulated 3-point waters found:     2418
   Removing shake constraints from C2    L0    1 -- H33   L0    1
   Removing shake constraints from C2    L0    1 -- H32   L0    1
   Removing shake constraints from C17   L1    2 -- H46   L1    2
 Number of shake restraints removed in TI region  1 :        2
 Number of shake restraints removed in TI region  2 :        1

     Sum of charges for TI region  1 =  -0.00001901
     Skip neutralizing charges...

     Sum of charges for TI region  2 =  -0.00002499
     Skip neutralizing charges...

--------------------------------------------------------------------------------
   4.  RESULTS
 NSTEP =     1000   TIME(PS) =     102.000  TEMP(K) =   297.93  PRESS =     0.0
 Etot   =    -18898.8663  EKtot   =      4343.8391  EPtot      =    -23242.7055
 BOND   =         4.8463  ANGLE   =         2.9832  DIHED      =         7.9161
 1-4 NB =         7.7960  1-4 EEL =       -49.4500  VDWAALS    =      3419.6803
 EELEC  =    -26651.1159  EHBOND  =         0.0000  RESTRAINT  =        14.6384
 EAMBER (non-restraint)  =    -23257.3439
 EKCMT  =         0.0000  VIRIAL  =         0.0000  VOLUME     =     74525.8586
                                                    Density    =         0.9821
 DV/DL  =       -21.2894
 ------------------------------------------------------------------------------

      A V E R A G E S   O V E R      50 S T E P S

 NSTEP =    50000   TIME(PS) =     200.000  TEMP(K) =   299.77  PRESS =     0.0
 Etot   =    -19036.0298  EKtot   =      4370.6371  EPtot      =    -23406.6668
 BOND   =         5.6052  ANGLE   =         5.2476  DIHED      =         7.0877
 1-4 NB =         7.4800  1-4 EEL =       -49.8353  VDWAALS    =      3452.8757
 EELEC  =    -26851.1348  EHBOND  =         0.0000  RESTRAINT  =        16.0072
 EAMBER (non-restraint)  =    -23422.6740
 EKCMT  =         0.0000  VIRIAL  =         0.0000  VOLUME     =     74416.3641
                                                    Density    =         0.9836
 DV/DL  =        -8.1266
 ------------------------------------------------------------------------------

      R M S  F L U C T U A T I O N S

 NSTEP =    50000   TIME(PS) =     200.000  TEMP(K) =     3.61  PRESS =     0.0
 Etot   =        82.9334  EKtot   =        52.6037  EPtot      =        77.0497
 BOND   =         1.5674  ANGLE   =         1.7229  DIHED      =         1.4461
 1-4 NB =         0.5597  1-4 EEL =         0.4588  VDWAALS    =        75.6076
 EELEC  =       122.3358  EHBOND  =         0.0000  RESTRAINT  =         2.5535
 EAMBER (non-restraint)  =        74.4962
 EKCMT  =         0.0000  VIRIAL  =         0.0000  VOLUME     =       442.9433
                                                    Density    =         0.0059
 DV/DL  =        15.8203
 ------------------------------------------------------------------------------

      A V E R A G E S   O V E R      50 S T E P S

 NSTEP =    50000   TIME(PS) =     200.000  TEMP(K) =   299.77  PRESS =     0.0
 Etot   =    -19036.9115  EKtot   =      4369.7553  EPtot      =    -23406.6668
 BOND   =         5.6052  ANGLE   =         5.2476  DIHED      =         7.0877
 1-4 NB =         7.4800  1-4 EEL =       -49.8353  VDWAALS    =      3452.8757
 EELEC  =    -26851.1348  EHBOND  =         0.0000  RESTRAINT  =        16.0072
 EAMBER (non-restraint)  =    -23422.6740
 EKCMT  =         0.0000  VIRIAL  =         0.0000  VOLUME     =     74416.3641
                                                    Density    =         0.9835
 DV/DL  =        -8.1266
 ------------------------------------------------------------------------------

      R M S  F L U C T U A T I O N S

 NSTEP =    50000   TIME(PS) =     200.000  TEMP(K) =     3.46  PRESS =     0.0
 Etot   =        82.2244  EKtot   =        50.4783  EPtot      =        77.0497
 BOND   =         1.5674  ANGLE   =         1.7229  DIHED      =         1.4461
 1-4 NB =         0.5597  1-4 EEL =         0.4588  VDWAALS    =        75.6076
 EELEC  =       122.3358  EHBOND  =         0.0000  RESTRAINT  =         2.5535
 EAMBER (non-restraint)  =        74.4962
 EKCMT  =         0.0000  VIRIAL  =         0.0000  VOLUME     =       442.9433
                                                    Density    =         0.0059
 DV/DL  =        15.8203
 ------------------------------------------------------------------------------

      DV/DL, AVERAGES OVER      50 STEPS

 NSTEP =    50000   TIME(PS) =     200.000  TEMP(K) =     3.46  PRESS =     0.0
 Etot   =         0.0000  EKtot   =         0.0000  EPtot      =         0.0000
 BOND   =         6.7870  ANGLE   =         0.1032  DIHED      =         0.0000
 1-4 NB =         0.5160  1-4 EEL =        80.9059  VDWAALS    =        16.7566
 EELEC  =      -118.3185  EHBOND  =         0.0000  RESTRAINT  =         0.0000
 EKCMT  =         0.0000  VIRIAL  =         0.0000  VOLUME     =         0.0000
                                                    Density    =         0.0000
 ------------------------------------------------------------------------------
