-------------------------------------------------------
          Amber 20 PMEMD                              2020
          -------------------------------------------------------

  [-O]verwriting output

File Assignments:

 Here is the input file:

&cntrl
 ig=-1,
 iwrap = 1,
 imin = 0,
 nstlim = 50000, dt = 0.002,
 irest = 0,
 ioutfm = 1,
 ntxo = 2,
 ntx = 1,
 ntb = 2,
 ntp = 1, barostat = 2,
 pres0 = 1.0,
 taup = 1.0,
 ntt = 3, gamma_ln = 1.0, tempi = 300, temp0 = 300,
 ntr = 1,
 ntc = 2, ntf = 1,
 cut = 10,
 ntpr=1000, ntwx=0, ntwr=1000,
 restraintmask='!(:WAT|@H=|:Na+|:Cl-)',
 restraint_wt=20.0,

 icfe = 1, ifsc = 1, clambda = 0.5, gti_lam_sch = 1, scalpha = 0.2, scbeta = 50
 timask1 = ':1', timask2 = ':2',
 scmask1 = ':1@C15,H55,H54,H53,H52,H51,H50,H49,H48,H45,H44,H43,C26,C25,O24,C23,

 nmropt = 0,
 /
 &wt type='DUMPFREQ', istep1 = 1000
 /
 &wt type='END'
 /
LISTIN=POUT
LISTOUT=POUT
DISANG=../../k.RST
DUMPAVE = rstr_npt1.dat

Note: ig = -1. Setting random seed to   235896 based on wallclock time in
      microseconds.

--------------------------------------------------------------------------------
   1.  RESOURCE   USE:
--------------------------------------------------------------------------------

 getting box info from netcdf restart file
 NATOM  =    7787 NTYPES =      13 NBONH =    7724 MBONA  =      67
 NTHETH =     114 MTHETA =      92 NPHIH =     167 MPHIA  =     157
 NHPARM =       0 NPARM  =       0 NNB   =   10818 NRES   =    2561
 NBONA  =      67 NTHETA =      92 NPHIA =     157 NUMBND =      16
 NUMANG =      28 NPTRA  =      22 NATYP =      14 NPHB   =       1
 IFBOX  =       1 NMXRS  =      59 IFCAP =       0 NEXTRA =       0
 NCOPY  =       0

     BOX TYPE: RECTILINEAR

--------------------------------------------------------------------------------
   2.  CONTROL  DATA  FOR  THE  RUN
--------------------------------------------------------------------------------

L0

General flags:
     imin    =       0, nmropt  =       0

Nature and format of input:
     ntx     =       1, irest   =       0, ntrx    =       1

Nature and format of output:
     ntxo    =       2, ntpr    =    1000, ntrx    =       1, ntwr    =    1000
     iwrap   =       1, ntwx    =       0, ntwv    =       0, ntwe    =       0
     ioutfm  =       1, ntwprt  =       0, idecomp =       0, rbornstat=      0

Potential function:
     ntf     =       1, ntb     =       2, igb     =       0, nsnb    =      25
     ipol    =       0, gbsa    =       0, iesp    =       0
     dielc   =   1.00000, cut     =  10.00000, intdiel =   1.00000

Frozen or restrained atoms:
     ibelly  =       0, ntr     =       1
     restraint_wt =  20.00000

Molecular dynamics:
     nstlim  =     50000, nscm    =         0, nrespa  =         1
     t       =   0.00000, dt      =   0.00200, vlimit  =  -1.00000

Langevin dynamics temperature regulation:
     ig      =  235896
     temp0   = 300.00000, tempi   = 300.00000, gamma_ln=   1.00000

Pressure regulation:
     ntp     =       1
     pres0   =   1.00000, comp    =  44.60000, taup    =   1.00000
     Monte-Carlo Barostat:
     mcbarint  =     100

SHAKE:
     ntc     =       2, jfastw  =       0
     tol     =   0.00001

Free energy options:
     icfe    =       1, ifsc    =       1, klambda =       1
     clambda =  0.5000, scalpha =  0.2000, scbeta  = 50.0000
     sceeorder =       2
     dynlmb =  0.0000 logdvdl =       0

Ewald parameters:
     verbose =       0, ew_type =       0, nbflag  =       1, use_pme =       1
     vdwmeth =       1, eedmeth =       1, netfrc  =       1
     Box X =   41.545   Box Y =   47.921   Box Z =   52.044
     Alpha =   90.000   Beta  =   90.000   Gamma =   90.000
     NFFT1 =   48       NFFT2 =   48       NFFT3 =   56
     Cutoff=   10.000   Tol   =0.100E-04
     Ewald Coefficient =  0.27511
     Interpolation order =    4

    LOADING THE CONSTRAINED ATOMS AS GROUPS

   5.  REFERENCE ATOM COORDINATES

  L0
     Mask !(:WAT|@H=|:Na+|:Cl-); matches    61 atoms
     TI Mask 1 :1; matches     59 atoms
     TI Mask 2 :2; matches     55 atoms
     TI region 1:    7732 atoms
     TI region 2:    7728 atoms
     SC Mask 1 :1@C15,H55,H54,H53,H52,H51,H50,H49,H48,H45,H44,H43,C26,C25,O24,C23,C22; matches     17 atoms
     SC Mask 2 :2@H54,C22,C23,O24,C25,C26,H45,H46,H47,H48,H49,H50,H51; matches     13 atoms

--------------------------------------------------------------------------------
   3.  ATOMIC COORDINATES AND VELOCITIES
--------------------------------------------------------------------------------

L0
 begin time read from input coords =    50.000 ps

     Molecule     1 is partially softcore
     Molecule     2 is partially softcore
 Number of triangulated 3-point waters found:     2557
   Removing shake constraints from C29   L1    2 -- H54   L1    2
 Number of shake restraints removed in TI region  1 :        0
 Number of shake restraints removed in TI region  2 :        1

     Sum of charges for TI region  1 =  -0.00001100
     Skip neutralizing charges...

     Sum of charges for TI region  2 =   0.00002101
     Skip neutralizing charges...

--------------------------------------------------------------------------------
   4.  RESULTS
 NSTEP =        0   TIME(PS) =       0.000  TEMP(K) =   450.61  PRESS =     0.0
 Etot   =    -16912.9842  EKtot   =      6938.3273  EPtot      =    -23851.3114
 BOND   =        11.2246  ANGLE   =        13.2916  DIHED      =        21.3399
 1-4 NB =        14.0997  1-4 EEL =       -27.8036  VDWAALS    =      3410.2020
 EELEC  =    -27293.6656  EHBOND  =         0.0000  RESTRAINT  =         0.0000
 EKCMT  =         0.0000  VIRIAL  =         0.0000  VOLUME     =    103615.0184
                                                    Density    =         0.7460
 DV/DL  =       -13.1785
 ------------------------------------------------------------------------------

      A V E R A G E S   O V E R      50 S T E P S

 NSTEP =    50000   TIME(PS) =     100.000  TEMP(K) =   299.31  PRESS =     0.0
 Etot   =    -19867.4030  EKtot   =      4608.6274  EPtot      =    -24476.0304
 BOND   =         7.2598  ANGLE   =        14.1385  DIHED      =        19.6156
 1-4 NB =        14.1091  1-4 EEL =       -28.1246  VDWAALS    =      3610.4894
 EELEC  =    -28127.4370  EHBOND  =         0.0000  RESTRAINT  =        13.9187
 EAMBER (non-restraint)  =    -24489.9491
 EKCMT  =         0.0000  VIRIAL  =         0.0000  VOLUME     =     81849.3559
                                                    Density    =         0.9493
 DV/DL  =        -3.4701
 ------------------------------------------------------------------------------

      R M S  F L U C T U A T I O N S

 NSTEP =    50000   TIME(PS) =     100.000  TEMP(K) =     3.60  PRESS =     0.0
 Etot   =       228.5219  EKtot   =        55.4260  EPtot      =       212.3897
 BOND   =         1.4942  ANGLE   =         2.9006  DIHED      =         1.7249
 1-4 NB =         0.7503  1-4 EEL =         0.5772  VDWAALS    =        89.0726
 EELEC  =       249.9203  EHBOND  =         0.0000  RESTRAINT  =         2.6592
 EAMBER (non-restraint)  =       209.7305
 EKCMT  =         0.0000  VIRIAL  =         0.0000  VOLUME     =      6288.5741
                                                    Density    =         0.0643
 DV/DL  =        12.2988
 ------------------------------------------------------------------------------

      A V E R A G E S   O V E R      50 S T E P S

 NSTEP =    50000   TIME(PS) =     100.000  TEMP(K) =   299.33  PRESS =     0.0
 Etot   =    -19869.4223  EKtot   =      4606.6081  EPtot      =    -24476.0304
 BOND   =         7.2598  ANGLE   =        14.1385  DIHED      =        19.6156
 1-4 NB =        14.1091  1-4 EEL =       -28.1246  VDWAALS    =      3610.4894
 EELEC  =    -28127.4370  EHBOND  =         0.0000  RESTRAINT  =        13.9187
 EAMBER (non-restraint)  =    -24489.9491
 EKCMT  =         0.0000  VIRIAL  =         0.0000  VOLUME     =     81849.3559
                                                    Density    =         0.9490
 DV/DL  =        -3.4701
 ------------------------------------------------------------------------------

      R M S  F L U C T U A T I O N S

 NSTEP =    50000   TIME(PS) =     100.000  TEMP(K) =     3.58  PRESS =     0.0
 Etot   =       228.5014  EKtot   =        55.0744  EPtot      =       212.3897
 BOND   =         1.4942  ANGLE   =         2.9006  DIHED      =         1.7249
 1-4 NB =         0.7503  1-4 EEL =         0.5772  VDWAALS    =        89.0726
 EELEC  =       249.9203  EHBOND  =         0.0000  RESTRAINT  =         2.6592
 EAMBER (non-restraint)  =       209.7305
 EKCMT  =         0.0000  VIRIAL  =         0.0000  VOLUME     =      6288.5741
                                                    Density    =         0.0643
 DV/DL  =        12.2988
 ------------------------------------------------------------------------------

      DV/DL, AVERAGES OVER      50 STEPS

 NSTEP =    50000   TIME(PS) =     100.000  TEMP(K) =     3.58  PRESS =     0.0
 Etot   =         0.0000  EKtot   =         0.0000  EPtot      =         0.0000
 BOND   =         0.1993  ANGLE   =         0.2098  DIHED      =         0.0000
 1-4 NB =        -2.6776  1-4 EEL =        32.2479  VDWAALS    =        -1.8739
 EELEC  =       -22.0664  EHBOND  =         0.0000  RESTRAINT  =         0.0000
 EKCMT  =         0.0000  VIRIAL  =         0.0000  VOLUME     =         0.0000
                                                    Density    =         0.0000
 ------------------------------------------------------------------------------
