-------------------------------------------------------
          Amber 20 PMEMD                              2020
          -------------------------------------------------------

  [-O]verwriting output

File Assignments:

 Here is the input file:

&cntrl
 ig=-1,
 iwrap = 1,
 imin = 0,
 nstlim = 50000, dt = 0.002,
 irest = 1,
 ioutfm = 1,
 ntxo = 2,
 ntx = 5,
 ntb = 2,
 ntp = 1, barostat = 2, pres0 = 1.0,
 taup = 1.0,
 ntt = 3, gamma_ln = 1.0, tempi = 300.0, temp0 = 300.0,
 ntr = 1,
 ntc = 2, ntf = 1,
 cut = 10.0,
 ntpr=1000, ntwx=0, ntwr=1000,

 restraintmask='@CA|:1,2&!@H=',
 restraint_wt=20.0,

 icfe = 1, ifsc = 1, clambda = 0.5, gti_lam_sch = 1, scalpha = 0.2, scbeta = 50
 timask1 = ':1', timask2 = ':2',
 scmask1 = ':1@C15,H55,H54,H53,H52,H51,H50,H49,H48,H45,H44,H43,C26,C25,O24,C23,

 nmropt = 0,
 /
 &wt type='DUMPFREQ', istep1 = 1000
 /
 &wt type='END'
 /
LISTIN=POUT
LISTOUT=POUT
DISANG=../../k.RST
DUMPAVE = rstr_npt2.dat

Note: ig = -1. Setting random seed to   505593 based on wallclock time in
      microseconds.

--------------------------------------------------------------------------------
   1.  RESOURCE   USE:
--------------------------------------------------------------------------------

 getting box info from netcdf restart file
 NATOM  =    7787 NTYPES =      13 NBONH =    7724 MBONA  =      67
 NTHETH =     114 MTHETA =      92 NPHIH =     167 MPHIA  =     157
 NHPARM =       0 NPARM  =       0 NNB   =   10818 NRES   =    2561
 NBONA  =      67 NTHETA =      92 NPHIA =     157 NUMBND =      16
 NUMANG =      28 NPTRA  =      22 NATYP =      14 NPHB   =       1
 IFBOX  =       1 NMXRS  =      59 IFCAP =       0 NEXTRA =       0
 NCOPY  =       0

     BOX TYPE: RECTILINEAR

--------------------------------------------------------------------------------
   2.  CONTROL  DATA  FOR  THE  RUN
--------------------------------------------------------------------------------

L0

General flags:
     imin    =       0, nmropt  =       0

Nature and format of input:
     ntx     =       5, irest   =       1, ntrx    =       1

Nature and format of output:
     ntxo    =       2, ntpr    =    1000, ntrx    =       1, ntwr    =    1000
     iwrap   =       1, ntwx    =       0, ntwv    =       0, ntwe    =       0
     ioutfm  =       1, ntwprt  =       0, idecomp =       0, rbornstat=      0

Potential function:
     ntf     =       1, ntb     =       2, igb     =       0, nsnb    =      25
     ipol    =       0, gbsa    =       0, iesp    =       0
     dielc   =   1.00000, cut     =  10.00000, intdiel =   1.00000

Frozen or restrained atoms:
     ibelly  =       0, ntr     =       1
     restraint_wt =  20.00000

Molecular dynamics:
     nstlim  =     50000, nscm    =         0, nrespa  =         1
     t       =   0.00000, dt      =   0.00200, vlimit  =  -1.00000

Langevin dynamics temperature regulation:
     ig      =  505593
     temp0   = 300.00000, tempi   = 300.00000, gamma_ln=   1.00000

Pressure regulation:
     ntp     =       1
     pres0   =   1.00000, comp    =  44.60000, taup    =   1.00000
     Monte-Carlo Barostat:
     mcbarint  =     100

SHAKE:
     ntc     =       2, jfastw  =       0
     tol     =   0.00001

Free energy options:
     icfe    =       1, ifsc    =       1, klambda =       1
     clambda =  0.5000, scalpha =  0.2000, scbeta  = 50.0000
     sceeorder =       2
     dynlmb =  0.0000 logdvdl =       0

Ewald parameters:
     verbose =       0, ew_type =       0, nbflag  =       1, use_pme =       1
     vdwmeth =       1, eedmeth =       1, netfrc  =       1
     Box X =   37.785   Box Y =   43.584   Box Z =   47.333
     Alpha =   90.000   Beta  =   90.000   Gamma =   90.000
     NFFT1 =   40       NFFT2 =   48       NFFT3 =   48
     Cutoff=   10.000   Tol   =0.100E-04
     Ewald Coefficient =  0.27511
     Interpolation order =    4

    LOADING THE CONSTRAINED ATOMS AS GROUPS

   5.  REFERENCE ATOM COORDINATES

  L0
     Mask @CA|:1,2&!@H=; matches    61 atoms
     TI Mask 1 :1; matches     59 atoms
     TI Mask 2 :2; matches     55 atoms
     TI region 1:    7732 atoms
     TI region 2:    7728 atoms
     SC Mask 1 :1@C15,H55,H54,H53,H52,H51,H50,H49,H48,H45,H44,H43,C26,C25,O24,C23,C22; matches     17 atoms
     SC Mask 2 :2@H54,C22,C23,O24,C25,C26,H45,H46,H47,H48,H49,H50,H51; matches     13 atoms

--------------------------------------------------------------------------------
   3.  ATOMIC COORDINATES AND VELOCITIES
--------------------------------------------------------------------------------

L0
 begin time read from input coords =   100.000 ps

     Molecule     1 is partially softcore
     Molecule     2 is partially softcore
 Number of triangulated 3-point waters found:     2557
   Removing shake constraints from C29   L1    2 -- H54   L1    2
 Number of shake restraints removed in TI region  1 :        0
 Number of shake restraints removed in TI region  2 :        1

     Sum of charges for TI region  1 =  -0.00001100
     Skip neutralizing charges...

     Sum of charges for TI region  2 =   0.00002101
     Skip neutralizing charges...

--------------------------------------------------------------------------------
   4.  RESULTS
 NSTEP =     1000   TIME(PS) =     102.000  TEMP(K) =   304.08  PRESS =     0.0
 Etot   =    -19916.4709  EKtot   =      4682.1736  EPtot      =    -24598.6444
 BOND   =        10.6646  ANGLE   =        17.2800  DIHED      =        20.6489
 1-4 NB =        13.0706  1-4 EEL =       -27.5435  VDWAALS    =      3707.4744
 EELEC  =    -28355.2028  EHBOND  =         0.0000  RESTRAINT  =        14.9633
 EAMBER (non-restraint)  =    -24613.6077
 EKCMT  =         0.0000  VIRIAL  =         0.0000  VOLUME     =     78499.6061
                                                    Density    =         0.9846
 DV/DL  =         1.5785
 ------------------------------------------------------------------------------

      A V E R A G E S   O V E R      50 S T E P S

 NSTEP =    50000   TIME(PS) =     200.000  TEMP(K) =   300.62  PRESS =     0.0
 Etot   =    -19935.5438  EKtot   =      4628.8889  EPtot      =    -24564.4327
 BOND   =         8.0970  ANGLE   =        14.7497  DIHED      =        19.9233
 1-4 NB =        14.0782  1-4 EEL =       -27.8333  VDWAALS    =      3641.4828
 EELEC  =    -28247.7506  EHBOND  =         0.0000  RESTRAINT  =        12.8202
 EAMBER (non-restraint)  =    -24577.2529
 EKCMT  =         0.0000  VIRIAL  =         0.0000  VOLUME     =     78584.0946
                                                    Density    =         0.9836
 DV/DL  =        -2.5416
 ------------------------------------------------------------------------------

      R M S  F L U C T U A T I O N S

 NSTEP =    50000   TIME(PS) =     200.000  TEMP(K) =     3.31  PRESS =     0.0
 Etot   =        78.6556  EKtot   =        50.9249  EPtot      =        65.2153
 BOND   =         1.9689  ANGLE   =         2.6369  DIHED      =         1.9877
 1-4 NB =         0.9913  1-4 EEL =         0.5634  VDWAALS    =        78.2172
 EELEC  =       117.7258  EHBOND  =         0.0000  RESTRAINT  =         2.4900
 EAMBER (non-restraint)  =        62.7253
 EKCMT  =         0.0000  VIRIAL  =         0.0000  VOLUME     =       346.7466
                                                    Density    =         0.0043
 DV/DL  =        11.4451
 ------------------------------------------------------------------------------

      A V E R A G E S   O V E R      50 S T E P S

 NSTEP =    50000   TIME(PS) =     200.000  TEMP(K) =   300.56  PRESS =     0.0
 Etot   =    -19938.9097  EKtot   =      4625.5230  EPtot      =    -24564.4327
 BOND   =         8.0970  ANGLE   =        14.7497  DIHED      =        19.9233
 1-4 NB =        14.0782  1-4 EEL =       -27.8333  VDWAALS    =      3641.4828
 EELEC  =    -28247.7506  EHBOND  =         0.0000  RESTRAINT  =        12.8202
 EAMBER (non-restraint)  =    -24577.2529
 EKCMT  =         0.0000  VIRIAL  =         0.0000  VOLUME     =     78584.0946
                                                    Density    =         0.9833
 DV/DL  =        -2.5416
 ------------------------------------------------------------------------------

      R M S  F L U C T U A T I O N S

 NSTEP =    50000   TIME(PS) =     200.000  TEMP(K) =     3.29  PRESS =     0.0
 Etot   =        78.2808  EKtot   =        50.6831  EPtot      =        65.2153
 BOND   =         1.9689  ANGLE   =         2.6369  DIHED      =         1.9877
 1-4 NB =         0.9913  1-4 EEL =         0.5634  VDWAALS    =        78.2172
 EELEC  =       117.7258  EHBOND  =         0.0000  RESTRAINT  =         2.4900
 EAMBER (non-restraint)  =        62.7253
 EKCMT  =         0.0000  VIRIAL  =         0.0000  VOLUME     =       346.7466
                                                    Density    =         0.0043
 DV/DL  =        11.4451
 ------------------------------------------------------------------------------

      DV/DL, AVERAGES OVER      50 STEPS

 NSTEP =    50000   TIME(PS) =     200.000  TEMP(K) =     3.29  PRESS =     0.0
 Etot   =         0.0000  EKtot   =         0.0000  EPtot      =         0.0000
 BOND   =         0.1893  ANGLE   =         0.1163  DIHED      =         0.0000
 1-4 NB =        -2.4143  1-4 EEL =        32.9620  VDWAALS    =        -2.0818
 EELEC  =       -22.3636  EHBOND  =         0.0000  RESTRAINT  =         0.0000
 EKCMT  =         0.0000  VIRIAL  =         0.0000  VOLUME     =         0.0000
                                                    Density    =         0.0000
 ------------------------------------------------------------------------------
