-------------------------------------------------------
          Amber 20 PMEMD                              2020
          -------------------------------------------------------

  [-O]verwriting output

File Assignments:

 Here is the input file:

NPT prod
 &cntrl
   imin = 0, nstlim = 125000, irest = 0, ntx = 1, dt = 0.002,

   ntt = 3, temp0 = 300.0, tempi = 300.0, tautp = 1.0, gamma_ln = 2.0,

   ntb = 1,
   ntc = 2, ntf = 1,
   cut = 10,
   ioutfm = 1, iwrap = 1,
   ntwe = 1000, ntwx = 2500, ntpr = 1000, ntwr = 100000,

  ntr = 0, restraintmask=':2-3,356-357@CA', restraint_wt=0.5,

   nmropt = 1,
 /
 &wt type='DUMPFREQ', istep1 = 1000
 /
 &wt type='END'
 /
LISTIN=POUT
LISTOUT=POUT
DISANG=../k-la-0.2.RST

DUMPAVE = rstr_0.205

Note: ig = -1. Setting random seed to   565562 based on wallclock time in
      microseconds.

--------------------------------------------------------------------------------
   1.  RESOURCE   USE:
--------------------------------------------------------------------------------

 getting box info from netcdf restart file
 NATOM  =   33089 NTYPES =      25 NBONH =   31780 MBONA  =    1321
 NTHETH =    2979 MTHETA =    1777 NPHIH =    6059 MPHIA  =    5536
 NHPARM =       0 NPARM  =       0 NNB   =   55000 NRES   =   10325
 NBONA  =    1321 NTHETA =    1777 NPHIA =    5536 NUMBND =      75
 NUMANG =     163 NPTRA  =     195 NATYP =      44 NPHB   =       1
 IFBOX  =       1 NMXRS  =      24 IFCAP =       0 NEXTRA =       0
 NCOPY  =       0

     BOX TYPE: RECTILINEAR

--------------------------------------------------------------------------------
   2.  CONTROL  DATA  FOR  THE  RUN
--------------------------------------------------------------------------------

default_name

General flags:
     imin    =       0, nmropt  =       1

Nature and format of input:
     ntx     =       1, irest   =       0, ntrx    =       1

Nature and format of output:
     ntxo    =       2, ntpr    =    1000, ntrx    =       1, ntwr    =  100000
     iwrap   =       1, ntwx    =    2500, ntwv    =       0, ntwe    =    1000
     ioutfm  =       1, ntwprt  =       0, idecomp =       0, rbornstat=      0

Potential function:
     ntf     =       1, ntb     =       1, igb     =       0, nsnb    =      25
     ipol    =       0, gbsa    =       0, iesp    =       0
     dielc   =   1.00000, cut     =  10.00000, intdiel =   1.00000

Frozen or restrained atoms:
     ibelly  =       0, ntr     =       0

Molecular dynamics:
     nstlim  =    125000, nscm    =      1000, nrespa  =         1
     t       =   0.00000, dt      =   0.00200, vlimit  =  -1.00000

Langevin dynamics temperature regulation:
     ig      =  565562
     temp0   = 300.00000, tempi   = 300.00000, gamma_ln=   2.00000

SHAKE:
     ntc     =       2, jfastw  =       0
     tol     =   0.00001

NMR refinement options:
     iscale  =       0, noeskp  =       1, ipnlty  =       1, mxsub   =       1
     scalm   = 100.00000, pencut  =   0.10000, tausw   =   0.10000

Ewald parameters:
     verbose =       0, ew_type =       0, nbflag  =       1, use_pme =       1
     vdwmeth =       1, eedmeth =       1, netfrc  =       1
     Box X =   67.238   Box Y =   63.090   Box Z =   77.995
     Alpha =   90.000   Beta  =   90.000   Gamma =   90.000
     NFFT1 =   64       NFFT2 =   64       NFFT3 =   80
     Cutoff=   10.000   Tol   =0.100E-04
     Ewald Coefficient =  0.27511
     Interpolation order =    4

--------------------------------------------------------------------------------
   3.  ATOMIC COORDINATES AND VELOCITIES
--------------------------------------------------------------------------------

default_name
 begin time read from input coords =   250.000 ps

           Begin reading energy term weight changes/NMR restraints
 WEIGHT CHANGES:
 DUMPFREQ   1000      0    0.000000    0.000000      0      0
                         ** No weight changes given **

 RESTRAINTS:
 Requested file redirections:
  LISTIN    = POUT
  LISTOUT   = POUT
  DISANG    = ../k-la-0.2.RST
  DUMPAVE   = rstr_0.205
 Restraints will be read from file: ../k-la-0.2.RST
Here are comments from the DISANG input file:

******
 C6  (   11)-CA  ( 1581)                            NSTEP1=     0 NSTEP2=     0
R1 =  -6.056 R2 =   3.944 R3 =   3.944 R4 =  13.944 RK2 =   0.400 RK3 =    0.400
 Rcurr:    4.242  Rcurr-(R2+R3)/2:    0.298  MIN(Rcurr-R2,Rcurr-R3):    0.298
******
 C6  (   11)-CA  ( 1581)-CA  ( 1591)                NSTEP1=     0 NSTEP2=     0
R1 =  41.906 R2 = 131.906 R3 = 131.906 R4 = 221.906 RK2 =   2.000 RK3 =    2.000
 Rcurr:  128.495  Rcurr-(R2+R3)/2:    3.410  MIN(Rcurr-R2,Rcurr-R3):    3.410
******
 C6  (   11)-CA  ( 1581)-CA  ( 1591)-CA  ( 1610)    NSTEP1=     0 NSTEP2=     0
R1 =-212.693 R2 =-122.693 R3 =-122.693 R4 = -32.693 RK2 =   4.000 RK3 =    4.000
 Rcurr: -121.290  Rcurr-(R2+R3)/2:    1.403  MIN(Rcurr-R2,Rcurr-R3):    1.403
******
 C1  (    1)-C6  (   11)-CA  ( 1581)                NSTEP1=     0 NSTEP2=     0
R1 = -30.733 R2 =  59.267 R3 =  59.267 R4 = 149.267 RK2 =   2.000 RK3 =    2.000
 Rcurr:   57.312  Rcurr-(R2+R3)/2:    1.954  MIN(Rcurr-R2,Rcurr-R3):    1.954
******
 C1  (    1)-C6  (   11)-CA  ( 1581)-CA  ( 1591)    NSTEP1=     0 NSTEP2=     0
R1 = -71.599 R2 =  18.401 R3 =  18.401 R4 = 108.401 RK2 =   4.000 RK3 =    4.000
 Rcurr:   20.255  Rcurr-(R2+R3)/2:    1.854  MIN(Rcurr-R2,Rcurr-R3):    1.854
******
 C2  (    3)-C1  (    1)-C6  (   11)-CA  ( 1581)    NSTEP1=     0 NSTEP2=     0
R1 =-194.315 R2 =-104.315 R3 =-104.315 R4 = -14.315 RK2 =   4.000 RK3 =    4.000
 Rcurr: -104.603  Rcurr-(R2+R3)/2:    0.288  MIN(Rcurr-R2,Rcurr-R3):    0.288
                       Number of restraints read =     6

                  Done reading weight changes/NMR restraints

 Number of triangulated 3-point waters found:    10154

     Sum of charges from parm topology file =  -0.00000008
     Forcing neutrality...

--------------------------------------------------------------------------------
   4.  RESULTS
 NSTEP =        0   TIME(PS) =       0.000  TEMP(K) =   441.15  PRESS =     0.0
 Etot   =    -73716.3188  EKtot   =     29581.1411  EPtot      =   -103297.4599
 BOND   =       506.4462  ANGLE   =      1264.5888  DIHED      =      2064.6664
 1-4 NB =       599.3823  1-4 EEL =      5233.3027  VDWAALS    =     12592.8243
 EELEC  =   -125558.7222  EHBOND  =         0.0000  RESTRAINT  =         0.0516
 EAMBER (non-restraint)  =   -103297.5115
 ------------------------------------------------------------------------------

      A V E R A G E S   O V E R     125 S T E P S

 NSTEP =   125000   TIME(PS) =     250.000  TEMP(K) =   299.89  PRESS =     0.0
 Etot   =    -83293.4599  EKtot   =     20108.9837  EPtot      =   -103402.4437
 BOND   =       508.6489  ANGLE   =      1268.7420  DIHED      =      2073.7931
 1-4 NB =       607.5923  1-4 EEL =      5201.9481  VDWAALS    =     12915.8256
 EELEC  =   -125979.3670  EHBOND  =         0.0000  RESTRAINT  =         0.3733
 EAMBER (non-restraint)  =   -103402.8170
 ------------------------------------------------------------------------------

      R M S  F L U C T U A T I O N S

 NSTEP =   125000   TIME(PS) =     250.000  TEMP(K) =     1.80  PRESS =     0.0
 Etot   =       186.1692  EKtot   =       120.9683  EPtot      =       141.5333
 BOND   =        17.5816  ANGLE   =        27.6052  DIHED      =        14.4110
 1-4 NB =        10.5723  1-4 EEL =        32.0629  VDWAALS    =       150.0885
 EELEC  =       229.2350  EHBOND  =         0.0000  RESTRAINT  =         0.2149
 EAMBER (non-restraint)  =       141.3185
 ------------------------------------------------------------------------------
