-------------------------------------------------------
          Amber 20 PMEMD                              2020
          -------------------------------------------------------

  [-O]verwriting output

File Assignments:

 Here is the input file:

NVT prod
 &cntrl
   imin = 0, nstlim = 1250000, irest = 0, ntx = 1, dt = 0.002,

   ntt = 3, temp0 = 300.0, tempi = 300.0, tautp = 1.0, gamma_ln = 2.0,

   ntb = 1,
   ntc = 2, ntf = 1,
   cut = 10,
   ioutfm = 1, iwrap = 1,
   ntwe = 1000, ntwx = 5000, ntpr = 1000, ntwr = 10000,

   ntr = 0,

   icfe = 1, ifsc = 1, clambda = 0.5, gti_lam_sch = 1, scalpha = 0.2, scbeta =
   timask1 = ':1', timask2 = ':2',
   scmask1 = ':1@C15,H55,H54,H53,H52,H51,H50,H49,H48,H45,H44,H43,C26,C25,O24,C2

   !ifmbar = 1, mbar_states = 11,
   !mbar_lambda = 0.0, 0.1, 0.2, 0.3, 0.4, 0.5, 0.6, 0.7, 0.8, 0.9, 1.0,

   nmropt = 0,
 /
 &wt type='DUMPFREQ', istep1 = 1000
 /
 &wt type='END'
 /
LISTIN=POUT
LISTOUT=POUT
DISANG=../../k.RST

DUMPAVE = rstr_prod.dat

Note: ig = -1. Setting random seed to   419916 based on wallclock time in
      microseconds.

--------------------------------------------------------------------------------
   1.  RESOURCE   USE:
--------------------------------------------------------------------------------

 getting box info from netcdf restart file
 NATOM  =    7787 NTYPES =      13 NBONH =    7724 MBONA  =      67
 NTHETH =     114 MTHETA =      92 NPHIH =     167 MPHIA  =     157
 NHPARM =       0 NPARM  =       0 NNB   =   10818 NRES   =    2561
 NBONA  =      67 NTHETA =      92 NPHIA =     157 NUMBND =      16
 NUMANG =      28 NPTRA  =      22 NATYP =      14 NPHB   =       1
 IFBOX  =       1 NMXRS  =      59 IFCAP =       0 NEXTRA =       0
 NCOPY  =       0

     BOX TYPE: RECTILINEAR

--------------------------------------------------------------------------------
   2.  CONTROL  DATA  FOR  THE  RUN
--------------------------------------------------------------------------------

L0

General flags:
     imin    =       0, nmropt  =       0

Nature and format of input:
     ntx     =       1, irest   =       0, ntrx    =       1

Nature and format of output:
     ntxo    =       2, ntpr    =    1000, ntrx    =       1, ntwr    =   10000
     iwrap   =       1, ntwx    =    5000, ntwv    =       0, ntwe    =    1000
     ioutfm  =       1, ntwprt  =       0, idecomp =       0, rbornstat=      0

Potential function:
     ntf     =       1, ntb     =       1, igb     =       0, nsnb    =      25
     ipol    =       0, gbsa    =       0, iesp    =       0
     dielc   =   1.00000, cut     =  10.00000, intdiel =   1.00000

Frozen or restrained atoms:
     ibelly  =       0, ntr     =       0

Molecular dynamics:
     nstlim  =   1250000, nscm    =      1000, nrespa  =         1
     t       =   0.00000, dt      =   0.00200, vlimit  =  -1.00000

Langevin dynamics temperature regulation:
     ig      =  419916
     temp0   = 300.00000, tempi   = 300.00000, gamma_ln=   2.00000

SHAKE:
     ntc     =       2, jfastw  =       0
     tol     =   0.00001

Free energy options:
     icfe    =       1, ifsc    =       1, klambda =       1
     clambda =  0.5000, scalpha =  0.2000, scbeta  = 50.0000
     sceeorder =       2
     dynlmb =  0.0000 logdvdl =       0

Ewald parameters:
     verbose =       0, ew_type =       0, nbflag  =       1, use_pme =       1
     vdwmeth =       1, eedmeth =       1, netfrc  =       1
     Box X =   37.752   Box Y =   43.546   Box Z =   47.292
     Alpha =   90.000   Beta  =   90.000   Gamma =   90.000
     NFFT1 =   40       NFFT2 =   48       NFFT3 =   48
     Cutoff=   10.000   Tol   =0.100E-04
     Ewald Coefficient =  0.27511
     Interpolation order =    4
     TI Mask 1 :1; matches     59 atoms
     TI Mask 2 :2; matches     55 atoms
     TI region 1:    7732 atoms
     TI region 2:    7728 atoms
     SC Mask 1 :1@C15,H55,H54,H53,H52,H51,H50,H49,H48,H45,H44,H43,C26,C25,O24,C23,C22; matches     17 atoms
     SC Mask 2 :2@H54,C22,C23,O24,C25,C26,H45,H46,H47,H48,H49,H50,H51; matches     13 atoms

--------------------------------------------------------------------------------
   3.  ATOMIC COORDINATES AND VELOCITIES
--------------------------------------------------------------------------------

L0
 begin time read from input coords =   300.000 ps

 Number of triangulated 3-point waters found:     2557
   Removing shake constraints from C29   L1    2 -- H54   L1    2
 Number of shake restraints removed in TI region  1 :        0
 Number of shake restraints removed in TI region  2 :        1

     Sum of charges for TI region  1 =  -0.00001100
     Skip neutralizing charges...

     Sum of charges for TI region  2 =   0.00002101
     Skip neutralizing charges...

--------------------------------------------------------------------------------
   4.  RESULTS
 NSTEP =        0   TIME(PS) =       0.000  TEMP(K) =   447.36  PRESS =     0.0
 Etot   =    -17726.2105  EKtot   =      6888.3129  EPtot      =    -24614.5234
 BOND   =         9.0970  ANGLE   =        24.1566  DIHED      =        19.1028
 1-4 NB =        12.9307  1-4 EEL =       -28.0715  VDWAALS    =      3730.0692
 EELEC  =    -28381.8081  EHBOND  =         0.0000  RESTRAINT  =         0.0000
 DV/DL  =         9.1363
 ------------------------------------------------------------------------------

      A V E R A G E S   O V E R    1250 S T E P S

 NSTEP =  1250000   TIME(PS) =    2500.000  TEMP(K) =   300.16  PRESS =     0.0
 Etot   =    -20013.7984  EKtot   =      4621.8182  EPtot      =    -24635.6166
 BOND   =         9.5231  ANGLE   =        16.4823  DIHED      =        19.9922
 1-4 NB =        13.5052  1-4 EEL =       -28.1863  VDWAALS    =      3655.5366
 EELEC  =    -28322.4697  EHBOND  =         0.0000  RESTRAINT  =         0.0000
 DV/DL  =         1.2351
 ------------------------------------------------------------------------------

      R M S  F L U C T U A T I O N S

 NSTEP =  1250000   TIME(PS) =    2500.000  TEMP(K) =     3.39  PRESS =     0.0
 Etot   =        88.1730  EKtot   =        52.2622  EPtot      =        69.7006
 BOND   =         2.5028  ANGLE   =         3.2076  DIHED      =         3.7673
 1-4 NB =         1.0862  1-4 EEL =         0.8645  VDWAALS    =        79.0030
 EELEC  =       115.3540  EHBOND  =         0.0000  RESTRAINT  =         0.0000
 DV/DL  =        12.3750
 ------------------------------------------------------------------------------

      A V E R A G E S   O V E R    1250 S T E P S

 NSTEP =  1250000   TIME(PS) =    2500.000  TEMP(K) =   300.16  PRESS =     0.0
 Etot   =    -20016.2363  EKtot   =      4619.3803  EPtot      =    -24635.6166
 BOND   =         9.5231  ANGLE   =        16.4823  DIHED      =        19.9922
 1-4 NB =        13.5052  1-4 EEL =       -28.1863  VDWAALS    =      3655.5366
 EELEC  =    -28322.4697  EHBOND  =         0.0000  RESTRAINT  =         0.0000
 DV/DL  =         1.2351
 ------------------------------------------------------------------------------

      R M S  F L U C T U A T I O N S

 NSTEP =  1250000   TIME(PS) =    2500.000  TEMP(K) =     3.40  PRESS =     0.0
 Etot   =        88.2555  EKtot   =        52.3725  EPtot      =        69.7006
 BOND   =         2.5028  ANGLE   =         3.2076  DIHED      =         3.7673
 1-4 NB =         1.0862  1-4 EEL =         0.8645  VDWAALS    =        79.0030
 EELEC  =       115.3540  EHBOND  =         0.0000  RESTRAINT  =         0.0000
 DV/DL  =        12.3750
 ------------------------------------------------------------------------------

      DV/DL, AVERAGES OVER    1250 STEPS

 NSTEP =  1250000   TIME(PS) =    2500.000  TEMP(K) =     3.40  PRESS =     0.0
 Etot   =         0.0000  EKtot   =         0.0000  EPtot      =         1.2351
 BOND   =         0.3573  ANGLE   =         0.1746  DIHED      =         0.0000
 1-4 NB =        -2.2484  1-4 EEL =        32.5466  VDWAALS    =        -2.0061
 EELEC  =       -18.0741  EHBOND  =         0.0000  RESTRAINT  =         0.0000
 DV/DL  =         1.2351
 ------------------------------------------------------------------------------
