-------------------------------------------------------
          Amber 20 PMEMD                              2020
          -------------------------------------------------------

  [-O]verwriting output

File Assignments:

 Here is the input file:

&cntrl
 ig=-1,
 iwrap = 1,
 imin = 0,
 nstlim = 50000, dt = 0.002,
 irest = 0,
 ioutfm = 1,
 ntxo = 2,
 ntx = 1,
 ntb = 2,
 ntp = 1, barostat = 2,
 pres0 = 1.0,
 taup = 1.0,
 ntt = 3, gamma_ln = 1.0, tempi = 300, temp0 = 300,
 ntr = 1,
 ntc = 2, ntf = 1,
 cut = 10,
 ntpr=1000, ntwx=0, ntwr=1000,
 restraintmask='!(:WAT|@H=|:Na+|:Cl-)',
 restraint_wt=20.0,

 icfe = 1, ifsc = 1, clambda = 0.79366, gti_lam_sch = 1, scalpha = 0.2, scbeta
 timask1 = ':1', timask2 = ':2',
 scmask1 = ':1@C29,H62,H59,H58,H57,H56,H55,H54,H53,H52,H51,H50,H49,H48,H47,H46,

 nmropt = 0,
 /
 &wt type='DUMPFREQ', istep1 = 1000
 /
 &wt type='END'
 /
LISTIN=POUT
LISTOUT=POUT
DISANG=../../k.RST
DUMPAVE = rstr_npt1.dat

Note: ig = -1. Setting random seed to   454671 based on wallclock time in
      microseconds.

--------------------------------------------------------------------------------
   1.  RESOURCE   USE:
--------------------------------------------------------------------------------

 getting box info from netcdf restart file
 NATOM  =    7380 NTYPES =      17 NBONH =    7315 MBONA  =      69
 NTHETH =     137 MTHETA =      95 NPHIH =     220 MPHIA  =     148
 NHPARM =       0 NPARM  =       0 NNB   =   10342 NRES   =    2423
 NBONA  =      69 NTHETA =      95 NPHIA =     148 NUMBND =      24
 NUMANG =      47 NPTRA  =      21 NATYP =      19 NPHB   =       1
 IFBOX  =       1 NMXRS  =      62 IFCAP =       0 NEXTRA =       0
 NCOPY  =       0

     BOX TYPE: RECTILINEAR

--------------------------------------------------------------------------------
   2.  CONTROL  DATA  FOR  THE  RUN
--------------------------------------------------------------------------------

L0

General flags:
     imin    =       0, nmropt  =       0

Nature and format of input:
     ntx     =       1, irest   =       0, ntrx    =       1

Nature and format of output:
     ntxo    =       2, ntpr    =    1000, ntrx    =       1, ntwr    =    1000
     iwrap   =       1, ntwx    =       0, ntwv    =       0, ntwe    =       0
     ioutfm  =       1, ntwprt  =       0, idecomp =       0, rbornstat=      0

Potential function:
     ntf     =       1, ntb     =       2, igb     =       0, nsnb    =      25
     ipol    =       0, gbsa    =       0, iesp    =       0
     dielc   =   1.00000, cut     =  10.00000, intdiel =   1.00000

Frozen or restrained atoms:
     ibelly  =       0, ntr     =       1
     restraint_wt =  20.00000

Molecular dynamics:
     nstlim  =     50000, nscm    =         0, nrespa  =         1
     t       =   0.00000, dt      =   0.00200, vlimit  =  -1.00000

Langevin dynamics temperature regulation:
     ig      =  454671
     temp0   = 300.00000, tempi   = 300.00000, gamma_ln=   1.00000

Pressure regulation:
     ntp     =       1
     pres0   =   1.00000, comp    =  44.60000, taup    =   1.00000
     Monte-Carlo Barostat:
     mcbarint  =     100

SHAKE:
     ntc     =       2, jfastw  =       0
     tol     =   0.00001

Free energy options:
     icfe    =       1, ifsc    =       1, klambda =       1
     clambda =  0.7937, scalpha =  0.2000, scbeta  = 50.0000
     sceeorder =       2
     dynlmb =  0.0000 logdvdl =       0

Ewald parameters:
     verbose =       0, ew_type =       0, nbflag  =       1, use_pme =       1
     vdwmeth =       1, eedmeth =       1, netfrc  =       1
     Box X =   41.545   Box Y =   43.772   Box Z =   54.498
     Alpha =   90.000   Beta  =   90.000   Gamma =   90.000
     NFFT1 =   48       NFFT2 =   48       NFFT3 =   56
     Cutoff=   10.000   Tol   =0.100E-04
     Ewald Coefficient =  0.27511
     Interpolation order =    4

    LOADING THE CONSTRAINED ATOMS AS GROUPS

   5.  REFERENCE ATOM COORDINATES

  L0
     Mask !(:WAT|@H=|:Na+|:Cl-); matches    62 atoms
     TI Mask 1 :1; matches     62 atoms
     TI Mask 2 :2; matches     61 atoms
     TI region 1:    7319 atoms
     TI region 2:    7318 atoms
     SC Mask 1 :1@C29,H62,H59,H58,H57,H56,H55,H54,H53,H52,H51,H50,H49,H48,H47,H46,H41,H40,H39,H38,H37,H36,H35,H34,H33,H32,C27,O26,C25,O24,C23,O22,C21,C20,C19,C18,C17,C7,C6,C5,C4,N3; matches     42 atoms
     SC Mask 2 :2@H46,C5,C6,C7,O8,C9,C10,C11,C12,C13,C14,O15,C16,C24,C25,N26,C27,C28,H33,H34,H35,H36,H37,H38,H39,H40,H41,H42,H43,H44,H45,H49,H50,H51,H52,H53,H54,H55,H56,H57,H61; matches     41 atoms

--------------------------------------------------------------------------------
   3.  ATOMIC COORDINATES AND VELOCITIES
--------------------------------------------------------------------------------

L0
 begin time read from input coords =    50.000 ps

     Molecule     1 is partially softcore
     Molecule     2 is partially softcore
 Number of triangulated 3-point waters found:     2418
   Removing shake constraints from C2    L0    1 -- H33   L0    1
   Removing shake constraints from C2    L0    1 -- H32   L0    1
   Removing shake constraints from C17   L1    2 -- H46   L1    2
 Number of shake restraints removed in TI region  1 :        2
 Number of shake restraints removed in TI region  2 :        1

     Sum of charges for TI region  1 =  -0.00001901
     Skip neutralizing charges...

     Sum of charges for TI region  2 =  -0.00002499
     Skip neutralizing charges...

--------------------------------------------------------------------------------
   4.  RESULTS
 NSTEP =        0   TIME(PS) =       0.000  TEMP(K) =   445.78  PRESS =     0.0
 Etot   =    -16227.7106  EKtot   =      6499.4525  EPtot      =    -22727.1630
 BOND   =         6.0331  ANGLE   =         4.2473  DIHED      =         8.8500
 1-4 NB =         8.4636  1-4 EEL =        -6.6557  VDWAALS    =      3437.6785
 EELEC  =    -26185.7799  EHBOND  =         0.0000  RESTRAINT  =         0.0000
 EKCMT  =         0.0000  VIRIAL  =         0.0000  VOLUME     =     99104.5994
                                                    Density    =         0.7385
 DV/DL  =      -142.1878
 ------------------------------------------------------------------------------

      A V E R A G E S   O V E R      50 S T E P S

 NSTEP =    50000   TIME(PS) =     100.000  TEMP(K) =   299.97  PRESS =     0.0
 Etot   =    -18938.3164  EKtot   =      4373.6117  EPtot      =    -23311.9281
 BOND   =         5.1109  ANGLE   =         5.0455  DIHED      =         6.3568
 1-4 NB =         8.2210  1-4 EEL =        -6.5437  VDWAALS    =      3432.5988
 EELEC  =    -26779.6217  EHBOND  =         0.0000  RESTRAINT  =        16.9043
 EAMBER (non-restraint)  =    -23328.8324
 EKCMT  =         0.0000  VIRIAL  =         0.0000  VOLUME     =     78370.5127
                                                    Density    =         0.9400
 DV/DL  =      -136.1632
 ------------------------------------------------------------------------------

      R M S  F L U C T U A T I O N S

 NSTEP =    50000   TIME(PS) =     100.000  TEMP(K) =     4.36  PRESS =     0.0
 Etot   =       216.4663  EKtot   =        63.6376  EPtot      =       213.2499
 BOND   =         1.5678  ANGLE   =         1.6165  DIHED      =         1.9106
 1-4 NB =         0.6095  1-4 EEL =         0.8374  VDWAALS    =        80.4854
 EELEC  =       226.9241  EHBOND  =         0.0000  RESTRAINT  =         2.6133
 EAMBER (non-restraint)  =       210.6367
 EKCMT  =         0.0000  VIRIAL  =         0.0000  VOLUME     =      6721.4647
                                                    Density    =         0.0715
 DV/DL  =        21.2992
 ------------------------------------------------------------------------------

      A V E R A G E S   O V E R      50 S T E P S

 NSTEP =    50000   TIME(PS) =     100.000  TEMP(K) =   299.91  PRESS =     0.0
 Etot   =    -18940.1062  EKtot   =      4371.8219  EPtot      =    -23311.9281
 BOND   =         5.1109  ANGLE   =         5.0455  DIHED      =         6.3568
 1-4 NB =         8.2210  1-4 EEL =        -6.5437  VDWAALS    =      3432.5988
 EELEC  =    -26779.6217  EHBOND  =         0.0000  RESTRAINT  =        16.9043
 EAMBER (non-restraint)  =    -23328.8324
 EKCMT  =         0.0000  VIRIAL  =         0.0000  VOLUME     =     78370.5127
                                                    Density    =         0.9399
 DV/DL  =      -136.1632
 ------------------------------------------------------------------------------

      R M S  F L U C T U A T I O N S

 NSTEP =    50000   TIME(PS) =     100.000  TEMP(K) =     4.47  PRESS =     0.0
 Etot   =       217.5137  EKtot   =        65.0951  EPtot      =       213.2499
 BOND   =         1.5678  ANGLE   =         1.6165  DIHED      =         1.9106
 1-4 NB =         0.6095  1-4 EEL =         0.8374  VDWAALS    =        80.4854
 EELEC  =       226.9241  EHBOND  =         0.0000  RESTRAINT  =         2.6133
 EAMBER (non-restraint)  =       210.6367
 EKCMT  =         0.0000  VIRIAL  =         0.0000  VOLUME     =      6721.4647
                                                    Density    =         0.0715
 DV/DL  =        21.2992
 ------------------------------------------------------------------------------

      DV/DL, AVERAGES OVER      50 STEPS

 NSTEP =    50000   TIME(PS) =     100.000  TEMP(K) =     4.47  PRESS =     0.0
 Etot   =         0.0000  EKtot   =         0.0000  EPtot      =         0.0000
 BOND   =        -2.0625  ANGLE   =         0.0472  DIHED      =         0.0000
 1-4 NB =        -0.2035  1-4 EEL =        46.4316  VDWAALS    =       -36.2915
 EELEC  =       -97.0690  EHBOND  =         0.0000  RESTRAINT  =         0.0000
 EKCMT  =         0.0000  VIRIAL  =         0.0000  VOLUME     =         0.0000
                                                    Density    =         0.0000
 ------------------------------------------------------------------------------
