-------------------------------------------------------
          Amber 20 PMEMD                              2020
          -------------------------------------------------------

  [-O]verwriting output

File Assignments:

 Here is the input file:

NPT prod
 &cntrl
   imin = 0, nstlim = 50000, irest = 1, ntx = 5, dt = 0.002,

   ntt = 3, temp0 = 300.0, tempi = 300.0, tautp = 1.0, gamma_ln = 2.0,
   ntp = 1, barostat = 2, pres0 = 1.0, taup = 1.0,

   ntb = 2,
   ntc = 2, ntf = 1,
   cut = 10,
   ioutfm = 1, iwrap = 1,
   ntwe = 1000, ntwx = 1000, ntpr = 1000, ntwr = 5000,

   ntr = 1, restraintmask='@CA', restraint_wt=0.5,

   icfe = 1, ifsc = 1, clambda = 0.8, gti_lam_sch = 1,
   scalpha=0.2, scbeta=50.0,
   timask1 = ':MOL', timask2 = '',
   scmask1 = ':MOL', scmask2 = '',

   nmropt = 1,
 /
 &wt type='DUMPFREQ', istep1 = 1000
 /
 &wt type='END'
 /
LISTIN=POUT
LISTOUT=POUT
DISANG=../../k.RST
DUMPAVE = rstr_npt3.dat

Note: ig = -1. Setting random seed to   640933 based on wallclock time in
      microseconds.

--------------------------------------------------------------------------------
   1.  RESOURCE   USE:
--------------------------------------------------------------------------------

 getting box info from netcdf restart file
 NATOM  =   33089 NTYPES =      25 NBONH =   31780 MBONA  =    1321
 NTHETH =    2979 MTHETA =    1777 NPHIH =    6059 MPHIA  =    5536
 NHPARM =       0 NPARM  =       0 NNB   =   55000 NRES   =   10325
 NBONA  =    1321 NTHETA =    1777 NPHIA =    5536 NUMBND =      75
 NUMANG =     163 NPTRA  =     195 NATYP =      44 NPHB   =       1
 IFBOX  =       1 NMXRS  =      24 IFCAP =       0 NEXTRA =       0
 NCOPY  =       0

     BOX TYPE: RECTILINEAR

--------------------------------------------------------------------------------
   2.  CONTROL  DATA  FOR  THE  RUN
--------------------------------------------------------------------------------

default_name

General flags:
     imin    =       0, nmropt  =       1

Nature and format of input:
     ntx     =       5, irest   =       1, ntrx    =       1

Nature and format of output:
     ntxo    =       2, ntpr    =    1000, ntrx    =       1, ntwr    =    5000
     iwrap   =       1, ntwx    =    1000, ntwv    =       0, ntwe    =    1000
     ioutfm  =       1, ntwprt  =       0, idecomp =       0, rbornstat=      0

Potential function:
     ntf     =       1, ntb     =       2, igb     =       0, nsnb    =      25
     ipol    =       0, gbsa    =       0, iesp    =       0
     dielc   =   1.00000, cut     =  10.00000, intdiel =   1.00000

Frozen or restrained atoms:
     ibelly  =       0, ntr     =       1
     restraint_wt =   0.50000

Molecular dynamics:
     nstlim  =     50000, nscm    =         0, nrespa  =         1
     t       =   0.00000, dt      =   0.00200, vlimit  =  -1.00000

Langevin dynamics temperature regulation:
     ig      =  640933
     temp0   = 300.00000, tempi   = 300.00000, gamma_ln=   2.00000

Pressure regulation:
     ntp     =       1
     pres0   =   1.00000, comp    =  44.60000, taup    =   1.00000
     Monte-Carlo Barostat:
     mcbarint  =     100

SHAKE:
     ntc     =       2, jfastw  =       0
     tol     =   0.00001

NMR refinement options:
     iscale  =       0, noeskp  =       1, ipnlty  =       1, mxsub   =       1
     scalm   = 100.00000, pencut  =   0.10000, tausw   =   0.10000

Free energy options:
     icfe    =       1, ifsc    =       1, klambda =       1
     clambda =  0.8000, scalpha =  0.2000, scbeta  = 50.0000
     sceeorder =       2
     dynlmb =  0.0000 logdvdl =       0

Ewald parameters:
     verbose =       0, ew_type =       0, nbflag  =       1, use_pme =       1
     vdwmeth =       1, eedmeth =       1, netfrc  =       1
     Box X =   67.339   Box Y =   63.185   Box Z =   78.112
     Alpha =   90.000   Beta  =   90.000   Gamma =   90.000
     NFFT1 =   64       NFFT2 =   64       NFFT3 =   80
     Cutoff=   10.000   Tol   =0.100E-04
     Ewald Coefficient =  0.27511
     Interpolation order =    4

    LOADING THE CONSTRAINED ATOMS AS GROUPS

   5.  REFERENCE ATOM COORDINATES

  default_name
     Mask @CA; matches   162 atoms
     TI Mask 1 :MOL; matches     18 atoms
     TI Mask 2  matches      0 atoms
     TI region 1:   33089 atoms
     TI region 2:   33071 atoms
     SC Mask 1 :MOL; matches     18 atoms

--------------------------------------------------------------------------------
   3.  ATOMIC COORDINATES AND VELOCITIES
--------------------------------------------------------------------------------

default_name
 begin time read from input coords =   200.000 ps

           Begin reading energy term weight changes/NMR restraints
 WEIGHT CHANGES:
 DUMPFREQ   1000      0    0.000000    0.000000      0      0
                         ** No weight changes given **

 RESTRAINTS:
 Requested file redirections:
  LISTIN    = POUT
  LISTOUT   = POUT
  DISANG    = ../../k.RST
  DUMPAVE   = rstr_npt3.dat
 Restraints will be read from file: ../../k.RST
Here are comments from the DISANG input file:

******
 C6  (   11)-CA  ( 1581)                            NSTEP1=     0 NSTEP2=     0
R1 =  -6.056 R2 =   3.944 R3 =   3.944 R4 =  13.944 RK2 =   2.000 RK3 =    2.000
 Rcurr:    4.062  Rcurr-(R2+R3)/2:    0.118  MIN(Rcurr-R2,Rcurr-R3):    0.118
******
 C6  (   11)-CA  ( 1581)-CA  ( 1591)                NSTEP1=     0 NSTEP2=     0
R1 =  41.906 R2 = 131.906 R3 = 131.906 R4 = 221.906 RK2 =  10.000 RK3 =   10.000
 Rcurr:  130.803  Rcurr-(R2+R3)/2:    1.103  MIN(Rcurr-R2,Rcurr-R3):    1.103
******
 C6  (   11)-CA  ( 1581)-CA  ( 1591)-CA  ( 1610)    NSTEP1=     0 NSTEP2=     0
R1 =-212.693 R2 =-122.693 R3 =-122.693 R4 = -32.693 RK2 =  20.000 RK3 =   20.000
 Rcurr: -127.298  Rcurr-(R2+R3)/2:    4.605  MIN(Rcurr-R2,Rcurr-R3):    4.605
******
 C1  (    1)-C6  (   11)-CA  ( 1581)                NSTEP1=     0 NSTEP2=     0
R1 = -30.733 R2 =  59.267 R3 =  59.267 R4 = 149.267 RK2 =  10.000 RK3 =   10.000
 Rcurr:   55.395  Rcurr-(R2+R3)/2:    3.871  MIN(Rcurr-R2,Rcurr-R3):    3.871
******
 C1  (    1)-C6  (   11)-CA  ( 1581)-CA  ( 1591)    NSTEP1=     0 NSTEP2=     0
R1 = -71.599 R2 =  18.401 R3 =  18.401 R4 = 108.401 RK2 =  20.000 RK3 =   20.000
 Rcurr:   28.098  Rcurr-(R2+R3)/2:    9.697  MIN(Rcurr-R2,Rcurr-R3):    9.697
******
 C2  (    3)-C1  (    1)-C6  (   11)-CA  ( 1581)    NSTEP1=     0 NSTEP2=     0
R1 =-194.315 R2 =-104.315 R3 =-104.315 R4 = -14.315 RK2 =  20.000 RK3 =   20.000
 Rcurr:  -88.269  Rcurr-(R2+R3)/2:   16.047  MIN(Rcurr-R2,Rcurr-R3):   16.047
                       Number of restraints read =     6

                  Done reading weight changes/NMR restraints

     Molecule     1 is completely softcore and skipped for C.O.M..
 Number of triangulated 3-point waters found:    10154
 Number of shake restraints removed in TI region  1 :        0
 Number of shake restraints removed in TI region  2 :        0

     Sum of charges for TI region  1 =  -0.00000008
     Skip neutralizing charges...

     Sum of charges for TI region  2 =  -0.00000007
     Skip neutralizing charges...

--------------------------------------------------------------------------------
   4.  RESULTS
 NSTEP =     1000   TIME(PS) =     202.000  TEMP(K) =   300.85  PRESS =     0.0
 Etot   =    -83431.2095  EKtot   =     20173.4297  EPtot      =   -103604.6392
 BOND   =       452.5933  ANGLE   =      1228.3940  DIHED      =      2091.7104
 1-4 NB =       612.2525  1-4 EEL =      5181.1130  VDWAALS    =     13305.6637
 EELEC  =   -126490.5101  EHBOND  =         0.0000  RESTRAINT  =        14.1440
 EAMBER (non-restraint)  =   -103618.7832
 EKCMT  =         0.0000  VIRIAL  =         0.0000  VOLUME     =    331498.0519
                                                    Density    =         1.0105
 DV/DL  =        -1.5690
 ------------------------------------------------------------------------------

      A V E R A G E S   O V E R      50 S T E P S

 NSTEP =    50000   TIME(PS) =     300.000  TEMP(K) =   299.92  PRESS =     0.0
 Etot   =    -83234.4035  EKtot   =     20111.2356  EPtot      =   -103345.6391
 BOND   =       500.9396  ANGLE   =      1254.6492  DIHED      =      2079.8659
 1-4 NB =       605.3686  1-4 EEL =      5227.2937  VDWAALS    =     12930.0528
 EELEC  =   -125962.2443  EHBOND  =         0.0000  RESTRAINT  =        18.4354
 EAMBER (non-restraint)  =   -103364.0745
 EKCMT  =         0.0000  VIRIAL  =         0.0000  VOLUME     =    331431.6736
                                                    Density    =         1.0107
 DV/DL  =         8.1965
 ------------------------------------------------------------------------------

      R M S  F L U C T U A T I O N S

 NSTEP =    50000   TIME(PS) =     300.000  TEMP(K) =     1.61  PRESS =     0.0
 Etot   =       193.8448  EKtot   =       107.6735  EPtot      =       165.4374
 BOND   =        18.8429  ANGLE   =        28.4746  DIHED      =        12.2733
 1-4 NB =        10.6125  1-4 EEL =        25.3842  VDWAALS    =       163.0711
 EELEC  =       267.5070  EHBOND  =         0.0000  RESTRAINT  =         2.2765
 EAMBER (non-restraint)  =       163.1609
 EKCMT  =         0.0000  VIRIAL  =         0.0000  VOLUME     =       727.4721
                                                    Density    =         0.0022
 DV/DL  =         6.9306
 ------------------------------------------------------------------------------

      A V E R A G E S   O V E R      50 S T E P S

 NSTEP =    50000   TIME(PS) =     300.000  TEMP(K) =   299.92  PRESS =     0.0
 Etot   =    -83248.0892  EKtot   =     20097.5499  EPtot      =   -103345.6391
 BOND   =       500.9396  ANGLE   =      1254.6492  DIHED      =      2079.8659
 1-4 NB =       605.3686  1-4 EEL =      5227.2937  VDWAALS    =     12930.0528
 EELEC  =   -125962.2443  EHBOND  =         0.0000  RESTRAINT  =        18.4354
 EAMBER (non-restraint)  =   -103364.0745
 EKCMT  =         0.0000  VIRIAL  =         0.0000  VOLUME     =    331431.6736
                                                    Density    =         1.0100
 DV/DL  =         8.1965
 ------------------------------------------------------------------------------

      R M S  F L U C T U A T I O N S

 NSTEP =    50000   TIME(PS) =     300.000  TEMP(K) =     1.62  PRESS =     0.0
 Etot   =       194.1837  EKtot   =       108.4008  EPtot      =       165.4374
 BOND   =        18.8429  ANGLE   =        28.4746  DIHED      =        12.2733
 1-4 NB =        10.6125  1-4 EEL =        25.3842  VDWAALS    =       163.0711
 EELEC  =       267.5070  EHBOND  =         0.0000  RESTRAINT  =         2.2765
 EAMBER (non-restraint)  =       163.1609
 EKCMT  =         0.0000  VIRIAL  =         0.0000  VOLUME     =       727.4721
                                                    Density    =         0.0022
 DV/DL  =         6.9306
 ------------------------------------------------------------------------------

      DV/DL, AVERAGES OVER      50 STEPS

 NSTEP =    50000   TIME(PS) =     300.000  TEMP(K) =     1.62  PRESS =     0.0
 Etot   =         0.0000  EKtot   =         0.0000  EPtot      =         0.0000
 BOND   =         0.0000  ANGLE   =         0.0000  DIHED      =         0.0000
 1-4 NB =         0.0000  1-4 EEL =         0.0000  VDWAALS    =         9.4727
 EELEC  =         0.0243  EHBOND  =         0.0000  RESTRAINT  =         0.0000
 EKCMT  =         0.0000  VIRIAL  =         0.0000  VOLUME     =         0.0000
                                                    Density    =         0.0000
 ------------------------------------------------------------------------------
