-------------------------------------------------------
          Amber 20 PMEMD                              2020
          -------------------------------------------------------

  [-O]verwriting output

File Assignments:

 Here is the input file:

NPT prod
 &cntrl
   imin = 0, nstlim = 50000, irest = 1, ntx = 5, dt = 0.002,

   ntt = 3, temp0 = 300.0, tempi = 300.0, tautp = 1.0, gamma_ln = 2.0,
   ntp = 1, barostat = 2, pres0 = 1.0, taup = 1.0,

   ntb = 2,
   ntc = 2, ntf = 1,
   cut = 10,
   ioutfm = 1, iwrap = 1,
   ntwe = 1000, ntwx = 1000, ntpr = 1000, ntwr = 5000,

   ntr = 1, restraintmask='@CA', restraint_wt=0.5,

   icfe = 1, ifsc = 1, clambda = 0.5, gti_lam_sch = 1,
   scalpha=0.2, scbeta=50.0,
   timask1 = ':MOL', timask2 = '',
   scmask1 = ':MOL', scmask2 = '',

   nmropt = 1,
 /
 &wt type='DUMPFREQ', istep1 = 1000
 /
 &wt type='END'
 /
LISTIN=POUT
LISTOUT=POUT
DISANG=../../k.RST
DUMPAVE = rstr_npt3.dat

Note: ig = -1. Setting random seed to   795806 based on wallclock time in
      microseconds.

--------------------------------------------------------------------------------
   1.  RESOURCE   USE:
--------------------------------------------------------------------------------

 getting box info from netcdf restart file
 NATOM  =   33089 NTYPES =      25 NBONH =   31780 MBONA  =    1321
 NTHETH =    2979 MTHETA =    1777 NPHIH =    6059 MPHIA  =    5536
 NHPARM =       0 NPARM  =       0 NNB   =   55000 NRES   =   10325
 NBONA  =    1321 NTHETA =    1777 NPHIA =    5536 NUMBND =      75
 NUMANG =     163 NPTRA  =     195 NATYP =      44 NPHB   =       1
 IFBOX  =       1 NMXRS  =      24 IFCAP =       0 NEXTRA =       0
 NCOPY  =       0

     BOX TYPE: RECTILINEAR

--------------------------------------------------------------------------------
   2.  CONTROL  DATA  FOR  THE  RUN
--------------------------------------------------------------------------------

default_name

General flags:
     imin    =       0, nmropt  =       1

Nature and format of input:
     ntx     =       5, irest   =       1, ntrx    =       1

Nature and format of output:
     ntxo    =       2, ntpr    =    1000, ntrx    =       1, ntwr    =    5000
     iwrap   =       1, ntwx    =    1000, ntwv    =       0, ntwe    =    1000
     ioutfm  =       1, ntwprt  =       0, idecomp =       0, rbornstat=      0

Potential function:
     ntf     =       1, ntb     =       2, igb     =       0, nsnb    =      25
     ipol    =       0, gbsa    =       0, iesp    =       0
     dielc   =   1.00000, cut     =  10.00000, intdiel =   1.00000

Frozen or restrained atoms:
     ibelly  =       0, ntr     =       1
     restraint_wt =   0.50000

Molecular dynamics:
     nstlim  =     50000, nscm    =         0, nrespa  =         1
     t       =   0.00000, dt      =   0.00200, vlimit  =  -1.00000

Langevin dynamics temperature regulation:
     ig      =  795806
     temp0   = 300.00000, tempi   = 300.00000, gamma_ln=   2.00000

Pressure regulation:
     ntp     =       1
     pres0   =   1.00000, comp    =  44.60000, taup    =   1.00000
     Monte-Carlo Barostat:
     mcbarint  =     100

SHAKE:
     ntc     =       2, jfastw  =       0
     tol     =   0.00001

NMR refinement options:
     iscale  =       0, noeskp  =       1, ipnlty  =       1, mxsub   =       1
     scalm   = 100.00000, pencut  =   0.10000, tausw   =   0.10000

Free energy options:
     icfe    =       1, ifsc    =       1, klambda =       1
     clambda =  0.5000, scalpha =  0.2000, scbeta  = 50.0000
     sceeorder =       2
     dynlmb =  0.0000 logdvdl =       0

Ewald parameters:
     verbose =       0, ew_type =       0, nbflag  =       1, use_pme =       1
     vdwmeth =       1, eedmeth =       1, netfrc  =       1
     Box X =   67.261   Box Y =   63.112   Box Z =   78.022
     Alpha =   90.000   Beta  =   90.000   Gamma =   90.000
     NFFT1 =   64       NFFT2 =   64       NFFT3 =   80
     Cutoff=   10.000   Tol   =0.100E-04
     Ewald Coefficient =  0.27511
     Interpolation order =    4

    LOADING THE CONSTRAINED ATOMS AS GROUPS

   5.  REFERENCE ATOM COORDINATES

  default_name
     Mask @CA; matches   162 atoms
     TI Mask 1 :MOL; matches     18 atoms
     TI Mask 2  matches      0 atoms
     TI region 1:   33089 atoms
     TI region 2:   33071 atoms
     SC Mask 1 :MOL; matches     18 atoms

--------------------------------------------------------------------------------
   3.  ATOMIC COORDINATES AND VELOCITIES
--------------------------------------------------------------------------------

default_name
 begin time read from input coords =   200.000 ps

           Begin reading energy term weight changes/NMR restraints
 WEIGHT CHANGES:
 DUMPFREQ   1000      0    0.000000    0.000000      0      0
                         ** No weight changes given **

 RESTRAINTS:
 Requested file redirections:
  LISTIN    = POUT
  LISTOUT   = POUT
  DISANG    = ../../k.RST
  DUMPAVE   = rstr_npt3.dat
 Restraints will be read from file: ../../k.RST
Here are comments from the DISANG input file:

******
 C6  (   11)-CA  ( 1581)                            NSTEP1=     0 NSTEP2=     0
R1 =  -6.056 R2 =   3.944 R3 =   3.944 R4 =  13.944 RK2 =   2.000 RK3 =    2.000
 Rcurr:    3.970  Rcurr-(R2+R3)/2:    0.027  MIN(Rcurr-R2,Rcurr-R3):    0.027
******
 C6  (   11)-CA  ( 1581)-CA  ( 1591)                NSTEP1=     0 NSTEP2=     0
R1 =  41.906 R2 = 131.906 R3 = 131.906 R4 = 221.906 RK2 =  10.000 RK3 =   10.000
 Rcurr:  132.894  Rcurr-(R2+R3)/2:    0.989  MIN(Rcurr-R2,Rcurr-R3):    0.989
******
 C6  (   11)-CA  ( 1581)-CA  ( 1591)-CA  ( 1610)    NSTEP1=     0 NSTEP2=     0
R1 =-212.693 R2 =-122.693 R3 =-122.693 R4 = -32.693 RK2 =  20.000 RK3 =   20.000
 Rcurr: -123.031  Rcurr-(R2+R3)/2:    0.338  MIN(Rcurr-R2,Rcurr-R3):    0.338
******
 C1  (    1)-C6  (   11)-CA  ( 1581)                NSTEP1=     0 NSTEP2=     0
R1 = -30.733 R2 =  59.267 R3 =  59.267 R4 = 149.267 RK2 =  10.000 RK3 =   10.000
 Rcurr:   62.887  Rcurr-(R2+R3)/2:    3.621  MIN(Rcurr-R2,Rcurr-R3):    3.621
******
 C1  (    1)-C6  (   11)-CA  ( 1581)-CA  ( 1591)    NSTEP1=     0 NSTEP2=     0
R1 = -71.599 R2 =  18.401 R3 =  18.401 R4 = 108.401 RK2 =  20.000 RK3 =   20.000
 Rcurr:   18.521  Rcurr-(R2+R3)/2:    0.119  MIN(Rcurr-R2,Rcurr-R3):    0.119
******
 C2  (    3)-C1  (    1)-C6  (   11)-CA  ( 1581)    NSTEP1=     0 NSTEP2=     0
R1 =-194.315 R2 =-104.315 R3 =-104.315 R4 = -14.315 RK2 =  20.000 RK3 =   20.000
 Rcurr:  -99.852  Rcurr-(R2+R3)/2:    4.463  MIN(Rcurr-R2,Rcurr-R3):    4.463
                       Number of restraints read =     6

                  Done reading weight changes/NMR restraints

     Molecule     1 is completely softcore and skipped for C.O.M..
 Number of triangulated 3-point waters found:    10154
 Number of shake restraints removed in TI region  1 :        0
 Number of shake restraints removed in TI region  2 :        0

     Sum of charges for TI region  1 =  -0.00000008
     Skip neutralizing charges...

     Sum of charges for TI region  2 =  -0.00000007
     Skip neutralizing charges...

--------------------------------------------------------------------------------
   4.  RESULTS
 NSTEP =     1000   TIME(PS) =     202.000  TEMP(K) =   300.18  PRESS =     0.0
 Etot   =    -82877.5423  EKtot   =     20128.5410  EPtot      =   -103006.0833
 BOND   =       484.1072  ANGLE   =      1298.4537  DIHED      =      2082.1713
 1-4 NB =       613.2701  1-4 EEL =      5253.1207  VDWAALS    =     12776.1016
 EELEC  =   -125531.1357  EHBOND  =         0.0000  RESTRAINT  =        17.8278
 EAMBER (non-restraint)  =   -103023.9111
 EKCMT  =         0.0000  VIRIAL  =         0.0000  VOLUME     =    331346.3655
                                                    Density    =         1.0109
 DV/DL  =        34.9200
 ------------------------------------------------------------------------------

      A V E R A G E S   O V E R      50 S T E P S

 NSTEP =    50000   TIME(PS) =     300.000  TEMP(K) =   299.81  PRESS =     0.0
 Etot   =    -83234.5897  EKtot   =     20103.9833  EPtot      =   -103338.5730
 BOND   =       508.6624  ANGLE   =      1257.8490  DIHED      =      2077.2933
 1-4 NB =       602.6829  1-4 EEL =      5240.4028  VDWAALS    =     12860.9796
 EELEC  =   -125904.3332  EHBOND  =         0.0000  RESTRAINT  =        17.8902
 EAMBER (non-restraint)  =   -103356.4632
 EKCMT  =         0.0000  VIRIAL  =         0.0000  VOLUME     =    331046.3146
                                                    Density    =         1.0119
 DV/DL  =        44.3387
 ------------------------------------------------------------------------------

      R M S  F L U C T U A T I O N S

 NSTEP =    50000   TIME(PS) =     300.000  TEMP(K) =     1.55  PRESS =     0.0
 Etot   =       177.1623  EKtot   =       104.0923  EPtot      =       140.4255
 BOND   =        21.8938  ANGLE   =        31.1000  DIHED      =        15.1737
 1-4 NB =         9.4005  1-4 EEL =        26.6450  VDWAALS    =       158.0885
 EELEC  =       241.2037  EHBOND  =         0.0000  RESTRAINT  =         2.3948
 EAMBER (non-restraint)  =       138.0306
 EKCMT  =         0.0000  VIRIAL  =         0.0000  VOLUME     =       780.0171
                                                    Density    =         0.0024
 DV/DL  =         9.4621
 ------------------------------------------------------------------------------

      A V E R A G E S   O V E R      50 S T E P S

 NSTEP =    50000   TIME(PS) =     300.000  TEMP(K) =   299.82  PRESS =     0.0
 Etot   =    -83247.9832  EKtot   =     20090.5898  EPtot      =   -103338.5730
 BOND   =       508.6624  ANGLE   =      1257.8490  DIHED      =      2077.2933
 1-4 NB =       602.6829  1-4 EEL =      5240.4028  VDWAALS    =     12860.9796
 EELEC  =   -125904.3332  EHBOND  =         0.0000  RESTRAINT  =        17.8902
 EAMBER (non-restraint)  =   -103356.4632
 EKCMT  =         0.0000  VIRIAL  =         0.0000  VOLUME     =    331046.3146
                                                    Density    =         1.0112
 DV/DL  =        44.3387
 ------------------------------------------------------------------------------

      R M S  F L U C T U A T I O N S

 NSTEP =    50000   TIME(PS) =     300.000  TEMP(K) =     1.55  PRESS =     0.0
 Etot   =       177.1882  EKtot   =       103.7565  EPtot      =       140.4255
 BOND   =        21.8938  ANGLE   =        31.1000  DIHED      =        15.1737
 1-4 NB =         9.4005  1-4 EEL =        26.6450  VDWAALS    =       158.0885
 EELEC  =       241.2037  EHBOND  =         0.0000  RESTRAINT  =         2.3948
 EAMBER (non-restraint)  =       138.0306
 EKCMT  =         0.0000  VIRIAL  =         0.0000  VOLUME     =       780.0171
                                                    Density    =         0.0024
 DV/DL  =         9.4621
 ------------------------------------------------------------------------------

      DV/DL, AVERAGES OVER      50 STEPS

 NSTEP =    50000   TIME(PS) =     300.000  TEMP(K) =     1.55  PRESS =     0.0
 Etot   =         0.0000  EKtot   =         0.0000  EPtot      =         0.0000
 BOND   =         0.0000  ANGLE   =         0.0000  DIHED      =         0.0000
 1-4 NB =         0.0000  1-4 EEL =         0.0000  VDWAALS    =        45.7683
 EELEC  =         6.4939  EHBOND  =         0.0000  RESTRAINT  =         0.0000
 EKCMT  =         0.0000  VIRIAL  =         0.0000  VOLUME     =         0.0000
                                                    Density    =         0.0000
 ------------------------------------------------------------------------------
