-------------------------------------------------------
          Amber 20 PMEMD                              2020
          -------------------------------------------------------

  [-O]verwriting output

File Assignments:

 Here is the input file:

&cntrl
 ig=-1,
 iwrap = 1,
 imin = 0,
 nstlim = 50000, dt = 0.002,
 irest = 0,
 ioutfm = 1,
 ntxo = 2,
 ntx = 1,
 ntb = 2,
 ntp = 1, barostat = 2,
 pres0 = 1.0,
 taup = 1.0,
 ntt = 3, gamma_ln = 1.0, tempi = 300, temp0 = 300,
 ntr = 1,
 ntc = 2, ntf = 1,
 cut = 10,
 ntpr=1000, ntwx=1000, ntwr=1000,
 restraintmask='!(:WAT|@H=|:Na+|:Cl-)',
 restraint_wt=20.0,

 icfe = 1, ifsc = 1, clambda = 0.4, gti_lam_sch = 1,
   scalpha=0.2, scbeta=50.0,
 timask1 = ':MOL', timask2 = '',
 scmask1 = ':MOL', scmask2 = '',

 nmropt = 1,
 /
 &wt type='DUMPFREQ', istep1 = 1000
 /
 &wt type='END'
 /
LISTIN=POUT
LISTOUT=POUT
DISANG=../../k.RST
DUMPAVE = rstr_npt1.dat

Note: ig = -1. Setting random seed to   981778 based on wallclock time in
      microseconds.

--------------------------------------------------------------------------------
   1.  RESOURCE   USE:
--------------------------------------------------------------------------------

 getting box info from netcdf restart file
 NATOM  =   33089 NTYPES =      25 NBONH =   31780 MBONA  =    1321
 NTHETH =    2979 MTHETA =    1777 NPHIH =    6059 MPHIA  =    5536
 NHPARM =       0 NPARM  =       0 NNB   =   55000 NRES   =   10325
 NBONA  =    1321 NTHETA =    1777 NPHIA =    5536 NUMBND =      75
 NUMANG =     163 NPTRA  =     195 NATYP =      44 NPHB   =       1
 IFBOX  =       1 NMXRS  =      24 IFCAP =       0 NEXTRA =       0
 NCOPY  =       0

     BOX TYPE: RECTILINEAR

--------------------------------------------------------------------------------
   2.  CONTROL  DATA  FOR  THE  RUN
--------------------------------------------------------------------------------

default_name

General flags:
     imin    =       0, nmropt  =       1

Nature and format of input:
     ntx     =       1, irest   =       0, ntrx    =       1

Nature and format of output:
     ntxo    =       2, ntpr    =    1000, ntrx    =       1, ntwr    =    1000
     iwrap   =       1, ntwx    =    1000, ntwv    =       0, ntwe    =       0
     ioutfm  =       1, ntwprt  =       0, idecomp =       0, rbornstat=      0

Potential function:
     ntf     =       1, ntb     =       2, igb     =       0, nsnb    =      25
     ipol    =       0, gbsa    =       0, iesp    =       0
     dielc   =   1.00000, cut     =  10.00000, intdiel =   1.00000

Frozen or restrained atoms:
     ibelly  =       0, ntr     =       1
     restraint_wt =  20.00000

Molecular dynamics:
     nstlim  =     50000, nscm    =         0, nrespa  =         1
     t       =   0.00000, dt      =   0.00200, vlimit  =  -1.00000

Langevin dynamics temperature regulation:
     ig      =  981778
     temp0   = 300.00000, tempi   = 300.00000, gamma_ln=   1.00000

Pressure regulation:
     ntp     =       1
     pres0   =   1.00000, comp    =  44.60000, taup    =   1.00000
     Monte-Carlo Barostat:
     mcbarint  =     100

SHAKE:
     ntc     =       2, jfastw  =       0
     tol     =   0.00001

NMR refinement options:
     iscale  =       0, noeskp  =       1, ipnlty  =       1, mxsub   =       1
     scalm   = 100.00000, pencut  =   0.10000, tausw   =   0.10000

Free energy options:
     icfe    =       1, ifsc    =       1, klambda =       1
     clambda =  0.4000, scalpha =  0.2000, scbeta  = 50.0000
     sceeorder =       2
     dynlmb =  0.0000 logdvdl =       0

Ewald parameters:
     verbose =       0, ew_type =       0, nbflag  =       1, use_pme =       1
     vdwmeth =       1, eedmeth =       1, netfrc  =       1
     Box X =   67.238   Box Y =   63.090   Box Z =   77.995
     Alpha =   90.000   Beta  =   90.000   Gamma =   90.000
     NFFT1 =   64       NFFT2 =   64       NFFT3 =   80
     Cutoff=   10.000   Tol   =0.100E-04
     Ewald Coefficient =  0.27511
     Interpolation order =    4

    LOADING THE CONSTRAINED ATOMS AS GROUPS

   5.  REFERENCE ATOM COORDINATES

  default_name
     Mask !(:WAT|@H=|:Na+|:Cl-); matches  1301 atoms
     TI Mask 1 :MOL; matches     18 atoms
     TI Mask 2  matches      0 atoms
     TI region 1:   33089 atoms
     TI region 2:   33071 atoms
     SC Mask 1 :MOL; matches     18 atoms

--------------------------------------------------------------------------------
   3.  ATOMIC COORDINATES AND VELOCITIES
--------------------------------------------------------------------------------

default_name
 begin time read from input coords =    50.000 ps

           Begin reading energy term weight changes/NMR restraints
 WEIGHT CHANGES:
 DUMPFREQ   1000      0    0.000000    0.000000      0      0
                         ** No weight changes given **

 RESTRAINTS:
 Requested file redirections:
  LISTIN    = POUT
  LISTOUT   = POUT
  DISANG    = ../../k.RST
  DUMPAVE   = rstr_npt1.dat
 Restraints will be read from file: ../../k.RST
Here are comments from the DISANG input file:

******
 C6  (   11)-CA  ( 1581)                            NSTEP1=     0 NSTEP2=     0
R1 =  -6.056 R2 =   3.944 R3 =   3.944 R4 =  13.944 RK2 =   2.000 RK3 =    2.000
 Rcurr:    4.174  Rcurr-(R2+R3)/2:    0.230  MIN(Rcurr-R2,Rcurr-R3):    0.230
******
 C6  (   11)-CA  ( 1581)-CA  ( 1591)                NSTEP1=     0 NSTEP2=     0
R1 =  41.906 R2 = 131.906 R3 = 131.906 R4 = 221.906 RK2 =  10.000 RK3 =   10.000
 Rcurr:  129.940  Rcurr-(R2+R3)/2:    1.965  MIN(Rcurr-R2,Rcurr-R3):    1.965
******
 C6  (   11)-CA  ( 1581)-CA  ( 1591)-CA  ( 1610)    NSTEP1=     0 NSTEP2=     0
R1 =-212.693 R2 =-122.693 R3 =-122.693 R4 = -32.693 RK2 =  20.000 RK3 =   20.000
 Rcurr: -119.815  Rcurr-(R2+R3)/2:    2.877  MIN(Rcurr-R2,Rcurr-R3):    2.877
******
 C1  (    1)-C6  (   11)-CA  ( 1581)                NSTEP1=     0 NSTEP2=     0
R1 = -30.733 R2 =  59.267 R3 =  59.267 R4 = 149.267 RK2 =  10.000 RK3 =   10.000
 Rcurr:   62.974  Rcurr-(R2+R3)/2:    3.707  MIN(Rcurr-R2,Rcurr-R3):    3.707
******
 C1  (    1)-C6  (   11)-CA  ( 1581)-CA  ( 1591)    NSTEP1=     0 NSTEP2=     0
R1 = -71.599 R2 =  18.401 R3 =  18.401 R4 = 108.401 RK2 =  20.000 RK3 =   20.000
 Rcurr:   18.049  Rcurr-(R2+R3)/2:    0.352  MIN(Rcurr-R2,Rcurr-R3):    0.352
******
 C2  (    3)-C1  (    1)-C6  (   11)-CA  ( 1581)    NSTEP1=     0 NSTEP2=     0
R1 =-194.315 R2 =-104.315 R3 =-104.315 R4 = -14.315 RK2 =  20.000 RK3 =   20.000
 Rcurr:  -93.403  Rcurr-(R2+R3)/2:   10.913  MIN(Rcurr-R2,Rcurr-R3):   10.913
                       Number of restraints read =     6

                  Done reading weight changes/NMR restraints

     Molecule     1 is completely softcore and skipped for C.O.M..
 Number of triangulated 3-point waters found:    10154
 Number of shake restraints removed in TI region  1 :        0
 Number of shake restraints removed in TI region  2 :        0

     Sum of charges for TI region  1 =  -0.00000008
     Skip neutralizing charges...

     Sum of charges for TI region  2 =  -0.00000007
     Skip neutralizing charges...

--------------------------------------------------------------------------------
   4.  RESULTS
 NSTEP =        0   TIME(PS) =       0.000  TEMP(K) =   441.53  PRESS =     0.0
 Etot   =    -73967.3295  EKtot   =     29606.8044  EPtot      =   -103574.1339
 BOND   =       434.9332  ANGLE   =      1261.1964  DIHED      =      2042.5450
 1-4 NB =       587.8618  1-4 EEL =      5253.1343  VDWAALS    =     12938.2796
 EELEC  =   -126093.0206  EHBOND  =         0.0000  RESTRAINT  =         0.9363
 EAMBER (non-restraint)  =   -103575.0703
 EKCMT  =         0.0000  VIRIAL  =         0.0000  VOLUME     =    330860.4628
                                                    Density    =         1.0124
 DV/DL  =        55.2452
 ------------------------------------------------------------------------------

      A V E R A G E S   O V E R      50 S T E P S

 NSTEP =    50000   TIME(PS) =     100.000  TEMP(K) =   299.82  PRESS =     0.0
 Etot   =    -83021.4421  EKtot   =     20104.2757  EPtot      =   -103125.7178
 BOND   =       480.4705  ANGLE   =      1208.5853  DIHED      =      2041.1672
 1-4 NB =       589.7490  1-4 EEL =      5241.2314  VDWAALS    =     12840.7954
 EELEC  =   -125935.4080  EHBOND  =         0.0000  RESTRAINT  =       407.6913
 EAMBER (non-restraint)  =   -103533.4091
 EKCMT  =         0.0000  VIRIAL  =         0.0000  VOLUME     =    331088.4017
                                                    Density    =         1.0117
 DV/DL  =        53.1937
 ------------------------------------------------------------------------------

      R M S  F L U C T U A T I O N S

 NSTEP =    50000   TIME(PS) =     100.000  TEMP(K) =     1.52  PRESS =     0.0
 Etot   =       176.5330  EKtot   =       101.8033  EPtot      =       139.7466
 BOND   =        19.7299  ANGLE   =        21.8863  DIHED      =        12.3722
 1-4 NB =         7.1601  1-4 EEL =        26.5014  VDWAALS    =       144.6196
 EELEC  =       221.3544  EHBOND  =         0.0000  RESTRAINT  =        13.0569
 EAMBER (non-restraint)  =       126.6898
 EKCMT  =         0.0000  VIRIAL  =         0.0000  VOLUME     =       822.7813
                                                    Density    =         0.0025
 DV/DL  =         3.4481
 ------------------------------------------------------------------------------

      A V E R A G E S   O V E R      50 S T E P S

 NSTEP =    50000   TIME(PS) =     100.000  TEMP(K) =   299.83  PRESS =     0.0
 Etot   =    -83034.6311  EKtot   =     20091.0867  EPtot      =   -103125.7178
 BOND   =       480.4705  ANGLE   =      1208.5853  DIHED      =      2041.1672
 1-4 NB =       589.7490  1-4 EEL =      5241.2314  VDWAALS    =     12840.7954
 EELEC  =   -125935.4080  EHBOND  =         0.0000  RESTRAINT  =       407.6913
 EAMBER (non-restraint)  =   -103533.4091
 EKCMT  =         0.0000  VIRIAL  =         0.0000  VOLUME     =    331088.4017
                                                    Density    =         1.0111
 DV/DL  =        53.1937
 ------------------------------------------------------------------------------

      R M S  F L U C T U A T I O N S

 NSTEP =    50000   TIME(PS) =     100.000  TEMP(K) =     1.51  PRESS =     0.0
 Etot   =       176.4634  EKtot   =       101.1749  EPtot      =       139.7466
 BOND   =        19.7299  ANGLE   =        21.8863  DIHED      =        12.3722
 1-4 NB =         7.1601  1-4 EEL =        26.5014  VDWAALS    =       144.6196
 EELEC  =       221.3544  EHBOND  =         0.0000  RESTRAINT  =        13.0569
 EAMBER (non-restraint)  =       126.6898
 EKCMT  =         0.0000  VIRIAL  =         0.0000  VOLUME     =       822.7813
                                                    Density    =         0.0025
 DV/DL  =         3.4481
 ------------------------------------------------------------------------------

      DV/DL, AVERAGES OVER      50 STEPS

 NSTEP =    50000   TIME(PS) =     100.000  TEMP(K) =     1.51  PRESS =     0.0
 Etot   =         0.0000  EKtot   =         0.0000  EPtot      =         0.0000
 BOND   =         0.0000  ANGLE   =         0.0000  DIHED      =         0.0000
 1-4 NB =         0.0000  1-4 EEL =         0.0000  VDWAALS    =        47.1002
 EELEC  =         8.3091  EHBOND  =         0.0000  RESTRAINT  =         0.0000
 EKCMT  =         0.0000  VIRIAL  =         0.0000  VOLUME     =         0.0000
                                                    Density    =         0.0000
 ------------------------------------------------------------------------------
