-------------------------------------------------------
          Amber 20 PMEMD                              2020
          -------------------------------------------------------

  [-O]verwriting output

File Assignments:

 Here is the input file:

NVT prod
 &cntrl
   imin = 0, nstlim = 250000, irest = 0, ntx = 1, dt = 0.002,

   ntt = 3, temp0 = 300.0, tempi = 300.0, tautp = 1.0, gamma_ln = 2.0,

   ntb = 1,
   ntc = 2, ntf = 1,
   cut = 10,
   ioutfm = 1, iwrap = 1,
   ntwe = 1000, ntwx = 5000, ntpr = 1000, ntwr = 10000,

   ntr = 0,

   icfe = 1, ifsc = 1, clambda = 0.08198, gti_lam_sch = 1, scalpha = 0.2, scbet
   timask1 = ':1', timask2 = ':2',
   scmask1 = ':1@C15,H55,H54,H53,H52,H51,H50,H49,H48,H45,H44,H43,C26,C25,O24,C2

   !ifmbar = 1, mbar_states = 11,
   !mbar_lambda = 0.0, 0.1, 0.2, 0.3, 0.4, 0.5, 0.6, 0.7, 0.8, 0.9, 1.0,

   nmropt = 0,
 /
 &wt type='DUMPFREQ', istep1 = 1000
 /
 &wt type='END'
 /
LISTIN=POUT
LISTOUT=POUT
DISANG=../k.RST

DUMPAVE = rstr_prod.dat

Note: ig = -1. Setting random seed to   937647 based on wallclock time in
      microseconds.

--------------------------------------------------------------------------------
   1.  RESOURCE   USE:
--------------------------------------------------------------------------------

 getting box info from netcdf restart file
 NATOM  =   30307 NTYPES =      27 NBONH =   27584 MBONA  =    2772
 NTHETH =    6117 MTHETA =    3759 NPHIH =   12378 MPHIA  =   11843
 NHPARM =       0 NPARM  =       0 NNB   =   63025 NRES   =    8643
 NBONA  =    2772 NTHETA =    3759 NPHIA =   11843 NUMBND =      83
 NUMANG =     185 NPTRA  =     215 NATYP =      48 NPHB   =       1
 IFBOX  =       1 NMXRS  =      59 IFCAP =       0 NEXTRA =       0
 NCOPY  =       0

     BOX TYPE: RECTILINEAR

--------------------------------------------------------------------------------
   2.  CONTROL  DATA  FOR  THE  RUN
--------------------------------------------------------------------------------

L0

General flags:
     imin    =       0, nmropt  =       0

Nature and format of input:
     ntx     =       1, irest   =       0, ntrx    =       1

Nature and format of output:
     ntxo    =       2, ntpr    =    1000, ntrx    =       1, ntwr    =   10000
     iwrap   =       1, ntwx    =    5000, ntwv    =       0, ntwe    =    1000
     ioutfm  =       1, ntwprt  =       0, idecomp =       0, rbornstat=      0

Potential function:
     ntf     =       1, ntb     =       1, igb     =       0, nsnb    =      25
     ipol    =       0, gbsa    =       0, iesp    =       0
     dielc   =   1.00000, cut     =  10.00000, intdiel =   1.00000

Frozen or restrained atoms:
     ibelly  =       0, ntr     =       0

Molecular dynamics:
     nstlim  =    250000, nscm    =      1000, nrespa  =         1
     t       =   0.00000, dt      =   0.00200, vlimit  =  -1.00000

Langevin dynamics temperature regulation:
     ig      =  937647
     temp0   = 300.00000, tempi   = 300.00000, gamma_ln=   2.00000

SHAKE:
     ntc     =       2, jfastw  =       0
     tol     =   0.00001

Free energy options:
     icfe    =       1, ifsc    =       1, klambda =       1
     clambda =  0.0820, scalpha =  0.2000, scbeta  = 50.0000
     sceeorder =       2
     dynlmb =  0.0000 logdvdl =       0

Ewald parameters:
     verbose =       0, ew_type =       0, nbflag  =       1, use_pme =       1
     vdwmeth =       1, eedmeth =       1, netfrc  =       1
     Box X =   75.678   Box Y =   72.154   Box Z =   54.571
     Alpha =   90.000   Beta  =   90.000   Gamma =   90.000
     NFFT1 =   80       NFFT2 =   80       NFFT3 =   56
     Cutoff=   10.000   Tol   =0.100E-04
     Ewald Coefficient =  0.27511
     Interpolation order =    4
     TI Mask 1 :1; matches     59 atoms
     TI Mask 2 :2; matches     55 atoms
     TI region 1:   30252 atoms
     TI region 2:   30248 atoms
     SC Mask 1 :1@C15,H55,H54,H53,H52,H51,H50,H49,H48,H45,H44,H43,C26,C25,O24,C23,C22; matches     17 atoms
     SC Mask 2 :2@H54,C22,C23,O24,C25,C26,H45,H46,H47,H48,H49,H50,H51; matches     13 atoms

--------------------------------------------------------------------------------
   3.  ATOMIC COORDINATES AND VELOCITIES
--------------------------------------------------------------------------------

L0
 begin time read from input coords =  2500.000 ps

 Number of triangulated 3-point waters found:     8294
   Removing shake constraints from C29   L1    2 -- H54   L1    2
 Number of shake restraints removed in TI region  1 :        0
 Number of shake restraints removed in TI region  2 :        1

     Sum of charges for TI region  1 =  -1.00001118
     Skip neutralizing charges...

     Sum of charges for TI region  2 =  -0.99997918
     Skip neutralizing charges...

--------------------------------------------------------------------------------
   4.  RESULTS
 NSTEP =        0   TIME(PS) =       0.000  TEMP(K) =   430.66  PRESS =     0.0
 Etot   =    -62777.6510  EKtot   =     27042.1367  EPtot      =    -89819.7878
 BOND   =      1003.3202  ANGLE   =      2742.2447  DIHED      =      4240.9915
 1-4 NB =      1257.0857  1-4 EEL =     12233.4432  VDWAALS    =      8478.4528
 EELEC  =   -119775.3258  EHBOND  =         0.0000  RESTRAINT  =         0.0000
 DV/DL  =        13.4712
 ------------------------------------------------------------------------------

      A V E R A G E S   O V E R     250 S T E P S

 NSTEP =   250000   TIME(PS) =     500.000  TEMP(K) =   299.86  PRESS =     0.0
 Etot   =    -71079.1917  EKtot   =     18828.7551  EPtot      =    -89907.9468
 BOND   =      1032.2918  ANGLE   =      2742.8277  DIHED      =      4279.0999
 1-4 NB =      1236.3415  1-4 EEL =     12197.5135  VDWAALS    =      8523.5295
 EELEC  =   -119919.5506  EHBOND  =         0.0000  RESTRAINT  =         0.0000
 DV/DL  =        12.1257
 ------------------------------------------------------------------------------

      R M S  F L U C T U A T I O N S

 NSTEP =   250000   TIME(PS) =     500.000  TEMP(K) =     1.67  PRESS =     0.0
 Etot   =       183.1097  EKtot   =       104.9051  EPtot      =       143.1781
 BOND   =        28.0568  ANGLE   =        41.4839  DIHED      =        22.2826
 1-4 NB =        13.9397  1-4 EEL =        42.1890  VDWAALS    =       144.3854
 EELEC  =       217.1309  EHBOND  =         0.0000  RESTRAINT  =         0.0000
 DV/DL  =         6.7880
 ------------------------------------------------------------------------------

      A V E R A G E S   O V E R     250 S T E P S

 NSTEP =   250000   TIME(PS) =     500.000  TEMP(K) =   299.86  PRESS =     0.0
 Etot   =    -71081.7070  EKtot   =     18826.2398  EPtot      =    -89907.9468
 BOND   =      1032.2918  ANGLE   =      2742.8277  DIHED      =      4279.0999
 1-4 NB =      1236.3415  1-4 EEL =     12197.5135  VDWAALS    =      8523.5295
 EELEC  =   -119919.5506  EHBOND  =         0.0000  RESTRAINT  =         0.0000
 DV/DL  =        12.1257
 ------------------------------------------------------------------------------

      R M S  F L U C T U A T I O N S

 NSTEP =   250000   TIME(PS) =     500.000  TEMP(K) =     1.67  PRESS =     0.0
 Etot   =       183.1267  EKtot   =       104.9013  EPtot      =       143.1781
 BOND   =        28.0568  ANGLE   =        41.4839  DIHED      =        22.2826
 1-4 NB =        13.9397  1-4 EEL =        42.1890  VDWAALS    =       144.3854
 EELEC  =       217.1309  EHBOND  =         0.0000  RESTRAINT  =         0.0000
 DV/DL  =         6.7880
 ------------------------------------------------------------------------------

      DV/DL, AVERAGES OVER     250 STEPS

 NSTEP =   250000   TIME(PS) =     500.000  TEMP(K) =     1.67  PRESS =     0.0
 Etot   =         0.0000  EKtot   =         0.0000  EPtot      =        12.1257
 BOND   =         0.0418  ANGLE   =         0.0177  DIHED      =         0.0000
 1-4 NB =         0.2829  1-4 EEL =         2.9697  VDWAALS    =         7.9824
 EELEC  =        -1.2940  EHBOND  =         0.0000  RESTRAINT  =         0.0000
 DV/DL  =        12.1257
 ------------------------------------------------------------------------------
